 xtb: 6.7.1 (edcfbbe)
          04112514273D

 16 15  0     0  0            999 V2000
   -2.1783   -0.9844    0.3223 C   0  0  0  0  0  0  0  0  0  0  0  0
   -1.5898   -0.0436   -0.5543 O   0  0  0  0  0  0  0  0  0  0  0  0
   -0.8079    0.9476    0.0730 C   0  0  0  0  0  0  0  0  0  0  0  0
    0.5348    0.4578    0.6219 C   0  0  0  0  0  0  0  0  0  0  0  0
    1.3701    0.0925   -0.4569 O   0  0  0  0  0  0  0  0  0  0  0  0
    2.6339   -0.3784   -0.0422 C   0  0  0  0  0  0  0  0  0  0  0  0
   -2.8650   -1.5666   -0.2873 H   0  0  0  0  0  0  0  0  0  0  0  0
   -2.7295   -0.4775    1.1216 H   0  0  0  0  0  0  0  0  0  0  0  0
   -1.4329   -1.6522    0.7632 H   0  0  0  0  0  0  0  0  0  0  0  0
   -0.6160    1.6857   -0.7080 H   0  0  0  0  0  0  0  0  0  0  0  0
   -1.3738    1.4110    0.8934 H   0  0  0  0  0  0  0  0  0  0  0  0
    0.3927   -0.4008    1.2939 H   0  0  0  0  0  0  0  0  0  0  0  0
    0.9978    1.2731    1.1973 H   0  0  0  0  0  0  0  0  0  0  0  0
    2.5346   -1.2751    0.5797 H   0  0  0  0  0  0  0  0  0  0  0  0
    3.1706    0.3915    0.5233 H   0  0  0  0  0  0  0  0  0  0  0  0
    3.1807   -0.6189   -0.9501 H   0  0  0  0  0  0  0  0  0  0  0  0
  1  2  1  0  0  0  0
  2  3  1  0  0  0  0
  3  4  1  0  0  0  0
  4  5  1  0  0  0  0
  5  6  1  0  0  0  0
  1  7  1  0  0  0  0
  1  8  1  0  0  0  0
  1  9  1  0  0  0  0
  3 10  1  0  0  0  0
  3 11  1  0  0  0  0
  4 12  1  0  0  0  0
  4 13  1  0  0  0  0
  6 14  1  0  0  0  0
  6 15  1  0  0  0  0
  6 16  1  0  0  0  0
M  END
