 xtb: 6.7.1 (edcfbbe)
          04112514523D

 17 16  0     0  0            999 V2000
    3.4152   -0.7352   -0.0777 C   0  0  0  0  0  0  0  0  0  0  0  0
    1.8917   -0.6744   -0.0610 C   0  0  0  0  0  0  0  0  0  0  0  0
    1.4025    0.7677    0.0379 C   0  0  0  0  0  0  0  0  0  0  0  0
   -0.0673    0.9553    0.0633 C   0  0  0  0  0  0  0  0  0  0  0  0
   -1.0042   -0.0009    0.0085 C   0  0  0  0  0  0  0  0  0  0  0  0
   -2.4106    0.3185    0.0421 C   0  0  0  0  0  0  0  0  0  0  0  0
   -3.3207   -0.4908   -0.0030 O   0  0  0  0  0  0  0  0  0  0  0  0
    3.8261   -0.3027    0.8316 H   0  0  0  0  0  0  0  0  0  0  0  0
    3.7535   -1.7657   -0.1485 H   0  0  0  0  0  0  0  0  0  0  0  0
    3.8115   -0.1865   -0.9289 H   0  0  0  0  0  0  0  0  0  0  0  0
    1.5168   -1.2459    0.7898 H   0  0  0  0  0  0  0  0  0  0  0  0
    1.5021   -1.1299   -0.9730 H   0  0  0  0  0  0  0  0  0  0  0  0
    1.7975    1.3465   -0.8033 H   0  0  0  0  0  0  0  0  0  0  0  0
    1.8129    1.2321    0.9405 H   0  0  0  0  0  0  0  0  0  0  0  0
   -0.3934    1.9867    0.1341 H   0  0  0  0  0  0  0  0  0  0  0  0
   -0.7578   -1.0493   -0.0628 H   0  0  0  0  0  0  0  0  0  0  0  0
   -2.6419    1.3981    0.1152 H   0  0  0  0  0  0  0  0  0  0  0  0
  1  2  1  0  0  0  0
  2  3  1  0  0  0  0
  3  4  1  0  0  0  0
  4  5  2  0  0  0  0
  5  6  1  0  0  0  0
  6  7  2  0  0  0  0
  1  8  1  0  0  0  0
  1  9  1  0  0  0  0
  1 10  1  0  0  0  0
  2 11  1  0  0  0  0
  2 12  1  0  0  0  0
  3 13  1  0  0  0  0
  3 14  1  0  0  0  0
  4 15  1  0  0  0  0
  5 16  1  0  0  0  0
  6 17  1  0  0  0  0
M  END
