 xtb: 6.7.1 (edcfbbe)
          04112516153D

 26 25  0     0  0            999 V2000
    2.6284   -0.9584   -1.2087 C   0  0  0  0  0  0  0  0  0  0  0  0
    1.5123   -0.2594   -0.4410 C   0  0  0  0  0  0  0  0  0  0  0  0
    0.8048   -1.2193    0.5100 C   0  0  0  0  0  0  0  0  0  0  0  0
    0.6075    0.4264   -1.4205 C   0  0  0  0  0  0  0  0  0  0  0  0
   -0.5805    0.8385   -1.3540 N   0  0  0  0  0  0  0  0  0  0  0  0
   -1.2831    0.6923   -0.1260 O   0  0  0  0  0  0  0  0  0  0  0  0
   -2.2703   -0.2510   -0.1218 C   0  0  0  0  0  0  0  0  0  0  0  0
   -2.3483   -1.1447   -0.9437 O   0  0  0  0  0  0  0  0  0  0  0  0
   -3.0673   -0.0616    0.9294 N   0  0  0  0  0  0  0  0  0  0  0  0
   -4.1638   -0.9461    1.2554 C   0  0  0  0  0  0  0  0  0  0  0  0
    2.1934    1.2037    0.5124 S   0  0  0  0  0  0  0  0  0  0  0  0
    3.5444    0.4419    1.4655 C   0  0  0  0  0  0  0  0  0  0  0  0
    2.1914   -1.6961   -1.8792 H   0  0  0  0  0  0  0  0  0  0  0  0
    3.1980   -0.2419   -1.7960 H   0  0  0  0  0  0  0  0  0  0  0  0
    3.3008   -1.4732   -0.5281 H   0  0  0  0  0  0  0  0  0  0  0  0
    0.2474   -0.6770    1.2704 H   0  0  0  0  0  0  0  0  0  0  0  0
    1.5297   -1.8643    1.0000 H   0  0  0  0  0  0  0  0  0  0  0  0
    0.1098   -1.8463   -0.0488 H   0  0  0  0  0  0  0  0  0  0  0  0
    1.0524    0.6637   -2.3798 H   0  0  0  0  0  0  0  0  0  0  0  0
   -2.8899    0.7358    1.5215 H   0  0  0  0  0  0  0  0  0  0  0  0
   -4.0083   -1.3919    2.2370 H   0  0  0  0  0  0  0  0  0  0  0  0
   -4.1965   -1.7291    0.5006 H   0  0  0  0  0  0  0  0  0  0  0  0
   -5.1032   -0.3956    1.2480 H   0  0  0  0  0  0  0  0  0  0  0  0
    4.3513    0.1514    0.8022 H   0  0  0  0  0  0  0  0  0  0  0  0
    3.1646   -0.4009    2.0320 H   0  0  0  0  0  0  0  0  0  0  0  0
    3.8813    1.2214    2.1404 H   0  0  0  0  0  0  0  0  0  0  0  0
  1  2  1  0  0  0  0
  2  3  1  0  0  0  0
  2  4  1  0  0  0  0
  4  5  2  0  0  0  0
  5  6  1  0  0  0  0
  6  7  1  0  0  0  0
  7  8  2  0  0  0  0
  7  9  4  0  0  0  0
  9 10  1  0  0  0  0
  2 11  1  0  0  0  0
 11 12  1  0  0  0  0
  1 13  1  0  0  0  0
  1 14  1  0  0  0  0
  1 15  1  0  0  0  0
  3 16  1  0  0  0  0
  3 17  1  0  0  0  0
  3 18  1  0  0  0  0
  4 19  1  0  0  0  0
  9 20  1  0  0  0  0
 10 21  1  0  0  0  0
 10 22  1  0  0  0  0
 10 23  1  0  0  0  0
 12 24  1  0  0  0  0
 12 25  1  0  0  0  0
 12 26  1  0  0  0  0
M  END
