 xtb: 6.7.1 (edcfbbe)
          04112516113D

 17 16  0     0  0            999 V2000
   -2.9165    0.0878    0.9289 C   0  0  0  0  0  0  0  0  0  0  0  0
   -2.3164    0.4126   -0.4348 C   0  0  0  0  0  0  0  0  0  0  0  0
   -0.9387   -0.2132   -0.6478 C   0  0  0  0  0  0  0  0  0  0  0  0
    0.1234    0.3625    0.2844 C   0  0  0  0  0  0  0  0  0  0  0  0
    1.5055   -0.1227   -0.0521 C   0  0  0  0  0  0  0  0  0  0  0  0
    1.7934   -0.8417   -0.9846 O   0  0  0  0  0  0  0  0  0  0  0  0
    2.4153    0.3329    0.7999 O   0  0  0  0  0  0  0  0  0  0  0  0
   -2.9481   -0.9884    1.0824 H   0  0  0  0  0  0  0  0  0  0  0  0
   -2.3352    0.5354    1.7301 H   0  0  0  0  0  0  0  0  0  0  0  0
   -3.9314    0.4725    0.9927 H   0  0  0  0  0  0  0  0  0  0  0  0
   -2.2436    1.4956   -0.5521 H   0  0  0  0  0  0  0  0  0  0  0  0
   -2.9851    0.0403   -1.2132 H   0  0  0  0  0  0  0  0  0  0  0  0
   -0.9975   -1.2933   -0.5003 H   0  0  0  0  0  0  0  0  0  0  0  0
   -0.6200   -0.0466   -1.6790 H   0  0  0  0  0  0  0  0  0  0  0  0
   -0.0711    0.0979    1.3246 H   0  0  0  0  0  0  0  0  0  0  0  0
    0.1383    1.4533    0.2240 H   0  0  0  0  0  0  0  0  0  0  0  0
    3.3179    0.0273    0.5861 H   0  0  0  0  0  0  0  0  0  0  0  0
  1  2  1  0  0  0  0
  2  3  1  0  0  0  0
  3  4  1  0  0  0  0
  4  5  1  0  0  0  0
  5  6  2  0  0  0  0
  5  7  1  0  0  0  0
  1  8  1  0  0  0  0
  1  9  1  0  0  0  0
  1 10  1  0  0  0  0
  2 11  1  0  0  0  0
  2 12  1  0  0  0  0
  3 13  1  0  0  0  0
  3 14  1  0  0  0  0
  4 15  1  0  0  0  0
  4 16  1  0  0  0  0
  7 17  1  0  0  0  0
M  END
