 xtb: 6.7.1 (edcfbbe)
          04112516113D

 17 16  0     0  0            999 V2000
   -3.3996   -1.3203    0.1059 C   0  0  0  0  0  0  0  0  0  0  0  0
   -3.1951    0.1496   -0.2487 C   0  0  0  0  0  0  0  0  0  0  0  0
   -2.2968    0.8979    0.7464 C   0  0  0  0  0  0  0  0  0  0  0  0
   -0.8371    1.0360    0.3031 C   0  0  0  0  0  0  0  0  0  0  0  0
   -0.1323   -0.3022    0.2102 C   0  0  0  0  0  0  0  0  0  0  0  0
    1.7866   -0.0635   -0.2004 Br  0  0  0  0  0  0  0  0  0  0  0  0
   -2.4579   -1.8616    0.1353 H   0  0  0  0  0  0  0  0  0  0  0  0
   -4.0435   -1.7972   -0.6294 H   0  0  0  0  0  0  0  0  0  0  0  0
   -3.8735   -1.4096    1.0808 H   0  0  0  0  0  0  0  0  0  0  0  0
   -2.7760    0.2311   -1.2535 H   0  0  0  0  0  0  0  0  0  0  0  0
   -4.1754    0.6289   -0.2701 H   0  0  0  0  0  0  0  0  0  0  0  0
   -2.6807    1.9096    0.8845 H   0  0  0  0  0  0  0  0  0  0  0  0
   -2.3344    0.3990    1.7164 H   0  0  0  0  0  0  0  0  0  0  0  0
   -0.7952    1.5370   -0.6668 H   0  0  0  0  0  0  0  0  0  0  0  0
   -0.3115    1.6658    1.0249 H   0  0  0  0  0  0  0  0  0  0  0  0
   -0.5186   -0.9195   -0.5972 H   0  0  0  0  0  0  0  0  0  0  0  0
   -0.1626   -0.8454    1.1532 H   0  0  0  0  0  0  0  0  0  0  0  0
  1  2  1  0  0  0  0
  2  3  1  0  0  0  0
  3  4  1  0  0  0  0
  4  5  1  0  0  0  0
  5  6  1  0  0  0  0
  1  7  1  0  0  0  0
  1  8  1  0  0  0  0
  1  9  1  0  0  0  0
  2 10  1  0  0  0  0
  2 11  1  0  0  0  0
  3 12  1  0  0  0  0
  3 13  1  0  0  0  0
  4 14  1  0  0  0  0
  4 15  1  0  0  0  0
  5 16  1  0  0  0  0
  5 17  1  0  0  0  0
M  END
