 xtb: 6.7.1 (edcfbbe)
          04112516263D

 20 19  0     0  0            999 V2000
   -1.7750   -1.1862   -0.5961 C   0  0  0  0  0  0  0  0  0  0  0  0
   -2.3605   -0.0610    0.2483 C   0  0  0  0  0  0  0  0  0  0  0  0
   -1.3355    0.6096    1.1627 C   0  0  0  0  0  0  0  0  0  0  0  0
   -0.2569    1.3861    0.4005 C   0  0  0  0  0  0  0  0  0  0  0  0
    0.7899    0.5240   -0.2545 C   0  0  0  0  0  0  0  0  0  0  0  0
    1.2253    0.7094   -1.3747 O   0  0  0  0  0  0  0  0  0  0  0  0
    1.2258   -0.4422    0.5437 O   0  0  0  0  0  0  0  0  0  0  0  0
    2.2476   -1.3132    0.0552 C   0  0  0  0  0  0  0  0  0  0  0  0
   -2.5596   -1.6794   -1.1649 H   0  0  0  0  0  0  0  0  0  0  0  0
   -1.0409   -0.8026   -1.3022 H   0  0  0  0  0  0  0  0  0  0  0  0
   -1.2914   -1.9262    0.0377 H   0  0  0  0  0  0  0  0  0  0  0  0
   -2.8034    0.6901   -0.4093 H   0  0  0  0  0  0  0  0  0  0  0  0
   -3.1591   -0.4685    0.8716 H   0  0  0  0  0  0  0  0  0  0  0  0
   -0.8573   -0.1406    1.7932 H   0  0  0  0  0  0  0  0  0  0  0  0
   -1.8604    1.3135    1.8102 H   0  0  0  0  0  0  0  0  0  0  0  0
    0.2797    2.0283    1.1029 H   0  0  0  0  0  0  0  0  0  0  0  0
   -0.7000    2.0176   -0.3705 H   0  0  0  0  0  0  0  0  0  0  0  0
    3.2250   -0.8842    0.2770 H   0  0  0  0  0  0  0  0  0  0  0  0
    2.1456   -1.4418   -1.0232 H   0  0  0  0  0  0  0  0  0  0  0  0
    2.1178   -2.2573    0.5764 H   0  0  0  0  0  0  0  0  0  0  0  0
  1  2  1  0  0  0  0
  2  3  1  0  0  0  0
  3  4  1  0  0  0  0
  4  5  1  0  0  0  0
  5  6  2  0  0  0  0
  5  7  1  0  0  0  0
  7  8  1  0  0  0  0
  1  9  1  0  0  0  0
  1 10  1  0  0  0  0
  1 11  1  0  0  0  0
  2 12  1  0  0  0  0
  2 13  1  0  0  0  0
  3 14  1  0  0  0  0
  3 15  1  0  0  0  0
  4 16  1  0  0  0  0
  4 17  1  0  0  0  0
  8 18  1  0  0  0  0
  8 19  1  0  0  0  0
  8 20  1  0  0  0  0
M  END
