 xtb: 6.7.1 (edcfbbe)
          04112516013D

 20 19  0     0  0            999 V2000
   -3.3817   -0.1698   -0.8199 C   0  0  0  0  0  0  0  0  0  0  0  0
   -2.8453    0.4288    0.4759 C   0  0  0  0  0  0  0  0  0  0  0  0
   -1.4995   -0.1603    0.8980 C   0  0  0  0  0  0  0  0  0  0  0  0
   -0.3784    0.1927   -0.0691 C   0  0  0  0  0  0  0  0  0  0  0  0
    0.8587   -0.2596    0.5009 O   0  0  0  0  0  0  0  0  0  0  0  0
    1.9747   -0.0198   -0.1764 C   0  0  0  0  0  0  0  0  0  0  0  0
    1.9891    0.5669   -1.2401 O   0  0  0  0  0  0  0  0  0  0  0  0
    3.1814   -0.5666    0.5237 C   0  0  0  0  0  0  0  0  0  0  0  0
   -3.4437   -1.2525   -0.7417 H   0  0  0  0  0  0  0  0  0  0  0  0
   -4.3764    0.2165   -1.0265 H   0  0  0  0  0  0  0  0  0  0  0  0
   -2.7408    0.0803   -1.6610 H   0  0  0  0  0  0  0  0  0  0  0  0
   -2.7461    1.5100    0.3630 H   0  0  0  0  0  0  0  0  0  0  0  0
   -3.5635    0.2420    1.2757 H   0  0  0  0  0  0  0  0  0  0  0  0
   -1.2262    0.2246    1.8817 H   0  0  0  0  0  0  0  0  0  0  0  0
   -1.5742   -1.2459    0.9707 H   0  0  0  0  0  0  0  0  0  0  0  0
   -0.5049   -0.2896   -1.0430 H   0  0  0  0  0  0  0  0  0  0  0  0
   -0.3136    1.2745   -0.2303 H   0  0  0  0  0  0  0  0  0  0  0  0
    2.9414   -0.7841    1.5586 H   0  0  0  0  0  0  0  0  0  0  0  0
    3.9972    0.1461    0.4493 H   0  0  0  0  0  0  0  0  0  0  0  0
    3.4857   -1.4820    0.0206 H   0  0  0  0  0  0  0  0  0  0  0  0
  1  2  1  0  0  0  0
  2  3  1  0  0  0  0
  3  4  1  0  0  0  0
  4  5  1  0  0  0  0
  5  6  1  0  0  0  0
  6  7  2  0  0  0  0
  6  8  1  0  0  0  0
  1  9  1  0  0  0  0
  1 10  1  0  0  0  0
  1 11  1  0  0  0  0
  2 12  1  0  0  0  0
  2 13  1  0  0  0  0
  3 14  1  0  0  0  0
  3 15  1  0  0  0  0
  4 16  1  0  0  0  0
  4 17  1  0  0  0  0
  8 18  1  0  0  0  0
  8 19  1  0  0  0  0
  8 20  1  0  0  0  0
M  END
