 xtb: 6.7.1 (edcfbbe)
          04112516253D

 17 16  0     0  0            999 V2000
   -2.9158    0.0852    0.9289 C   0  0  0  0  0  0  0  0  0  0  0  0
   -2.3168    0.4142   -0.4342 C   0  0  0  0  0  0  0  0  0  0  0  0
   -0.9386   -0.2098   -0.6496 C   0  0  0  0  0  0  0  0  0  0  0  0
    0.1239    0.3660    0.2820 C   0  0  0  0  0  0  0  0  0  0  0  0
    1.5049   -0.1252   -0.0503 C   0  0  0  0  0  0  0  0  0  0  0  0
    1.7921   -0.8483   -0.9798 O   0  0  0  0  0  0  0  0  0  0  0  0
    2.4146    0.3301    0.8019 O   0  0  0  0  0  0  0  0  0  0  0  0
   -2.9455   -0.9914    1.0799 H   0  0  0  0  0  0  0  0  0  0  0  0
   -2.3349    0.5318    1.7310 H   0  0  0  0  0  0  0  0  0  0  0  0
   -3.9312    0.4680    0.9941 H   0  0  0  0  0  0  0  0  0  0  0  0
   -2.2450    1.4976   -0.5487 H   0  0  0  0  0  0  0  0  0  0  0  0
   -2.9857    0.0434   -1.2132 H   0  0  0  0  0  0  0  0  0  0  0  0
   -0.9961   -1.2901   -0.5032 H   0  0  0  0  0  0  0  0  0  0  0  0
   -0.6214   -0.0419   -1.6811 H   0  0  0  0  0  0  0  0  0  0  0  0
   -0.0732    0.1058    1.3228 H   0  0  0  0  0  0  0  0  0  0  0  0
    0.1424    1.4564    0.2175 H   0  0  0  0  0  0  0  0  0  0  0  0
    3.3166    0.0206    0.5911 H   0  0  0  0  0  0  0  0  0  0  0  0
  1  2  1  0  0  0  0
  2  3  1  0  0  0  0
  3  4  1  0  0  0  0
  4  5  1  0  0  0  0
  5  6  2  0  0  0  0
  5  7  1  0  0  0  0
  1  8  1  0  0  0  0
  1  9  1  0  0  0  0
  1 10  1  0  0  0  0
  2 11  1  0  0  0  0
  2 12  1  0  0  0  0
  3 13  1  0  0  0  0
  3 14  1  0  0  0  0
  4 15  1  0  0  0  0
  4 16  1  0  0  0  0
  7 17  1  0  0  0  0
M  END
