 xtb: 6.7.1 (edcfbbe)
          04112514233D

 23 22  0     0  0            999 V2000
    2.5950    1.3324    0.5380 C   0  0  0  0  0  0  0  0  0  0  0  0
    2.0480    0.2221   -0.3563 C   0  0  0  0  0  0  0  0  0  0  0  0
    3.1959   -0.4584   -1.1001 C   0  0  0  0  0  0  0  0  0  0  0  0
    1.2665   -0.8201    0.4548 C   0  0  0  0  0  0  0  0  0  0  0  0
   -0.0887   -0.3208    0.9346 C   0  0  0  0  0  0  0  0  0  0  0  0
   -0.9230   -0.0895   -0.2105 O   0  0  0  0  0  0  0  0  0  0  0  0
   -2.2335   -0.0124   -0.0251 C   0  0  0  0  0  0  0  0  0  0  0  0
   -2.7591   -0.1264    1.0646 O   0  0  0  0  0  0  0  0  0  0  0  0
   -2.9644    0.2372   -1.3098 C   0  0  0  0  0  0  0  0  0  0  0  0
    3.1416    2.0590   -0.0579 H   0  0  0  0  0  0  0  0  0  0  0  0
    3.2730    0.9187    1.2811 H   0  0  0  0  0  0  0  0  0  0  0  0
    1.7949    1.8555    1.0548 H   0  0  0  0  0  0  0  0  0  0  0  0
    1.3652    0.6616   -1.0905 H   0  0  0  0  0  0  0  0  0  0  0  0
    3.8723   -0.9348   -0.3942 H   0  0  0  0  0  0  0  0  0  0  0  0
    3.7593    0.2705   -1.6770 H   0  0  0  0  0  0  0  0  0  0  0  0
    2.8186   -1.2167   -1.7816 H   0  0  0  0  0  0  0  0  0  0  0  0
    1.8477   -1.1202    1.3272 H   0  0  0  0  0  0  0  0  0  0  0  0
    1.0982   -1.7020   -0.1653 H   0  0  0  0  0  0  0  0  0  0  0  0
   -0.5809   -1.0578    1.5780 H   0  0  0  0  0  0  0  0  0  0  0  0
   -0.0062    0.6158    1.4936 H   0  0  0  0  0  0  0  0  0  0  0  0
   -2.3234    0.0032   -2.1527 H   0  0  0  0  0  0  0  0  0  0  0  0
   -3.2456    1.2874   -1.3475 H   0  0  0  0  0  0  0  0  0  0  0  0
   -3.8733   -0.3565   -1.3299 H   0  0  0  0  0  0  0  0  0  0  0  0
  1  2  1  0  0  0  0
  2  3  1  0  0  0  0
  2  4  1  0  0  0  0
  4  5  1  0  0  0  0
  5  6  1  0  0  0  0
  6  7  1  0  0  0  0
  7  8  2  0  0  0  0
  7  9  1  0  0  0  0
  1 10  1  0  0  0  0
  1 11  1  0  0  0  0
  1 12  1  0  0  0  0
  2 13  1  0  0  0  0
  3 14  1  0  0  0  0
  3 15  1  0  0  0  0
  3 16  1  0  0  0  0
  4 17  1  0  0  0  0
  4 18  1  0  0  0  0
  5 19  1  0  0  0  0
  5 20  1  0  0  0  0
  9 21  1  0  0  0  0
  9 22  1  0  0  0  0
  9 23  1  0  0  0  0
M  END
