 xtb: 6.7.1 (edcfbbe)
          04112516123D

 19 18  0     0  0            999 V2000
   -2.8978   -0.8665   -0.1714 C   0  0  0  0  0  0  0  0  0  0  0  0
   -1.7537    0.0942   -0.4734 C   0  0  0  0  0  0  0  0  0  0  0  0
   -0.8164    0.2418    0.7241 C   0  0  0  0  0  0  0  0  0  0  0  0
    0.2832    1.2829    0.5137 C   0  0  0  0  0  0  0  0  0  0  0  0
    1.3150    0.8733   -0.5450 C   0  0  0  0  0  0  0  0  0  0  0  0
    1.9979   -0.3525   -0.1853 C   0  0  0  0  0  0  0  0  0  0  0  0
    2.5521   -1.3659    0.1294 C   0  0  0  0  0  0  0  0  0  0  0  0
   -3.5527   -0.9657   -1.0337 H   0  0  0  0  0  0  0  0  0  0  0  0
   -3.4875   -0.5065    0.6690 H   0  0  0  0  0  0  0  0  0  0  0  0
   -2.5090   -1.8507    0.0807 H   0  0  0  0  0  0  0  0  0  0  0  0
   -1.1979   -0.2801   -1.3348 H   0  0  0  0  0  0  0  0  0  0  0  0
   -2.1623    1.0732   -0.7355 H   0  0  0  0  0  0  0  0  0  0  0  0
   -0.3552   -0.7239    0.9441 H   0  0  0  0  0  0  0  0  0  0  0  0
   -1.4077    0.5337    1.5957 H   0  0  0  0  0  0  0  0  0  0  0  0
    0.8014    1.4417    1.4623 H   0  0  0  0  0  0  0  0  0  0  0  0
   -0.1676    2.2314    0.2132 H   0  0  0  0  0  0  0  0  0  0  0  0
    2.0590    1.6676   -0.6508 H   0  0  0  0  0  0  0  0  0  0  0  0
    0.8281    0.7356   -1.5131 H   0  0  0  0  0  0  0  0  0  0  0  0
    3.0442   -2.2526    0.3964 H   0  0  0  0  0  0  0  0  0  0  0  0
  1  2  1  0  0  0  0
  2  3  1  0  0  0  0
  3  4  1  0  0  0  0
  4  5  1  0  0  0  0
  5  6  1  0  0  0  0
  6  7  3  0  0  0  0
  1  8  1  0  0  0  0
  1  9  1  0  0  0  0
  1 10  1  0  0  0  0
  2 11  1  0  0  0  0
  2 12  1  0  0  0  0
  3 13  1  0  0  0  0
  3 14  1  0  0  0  0
  4 15  1  0  0  0  0
  4 16  1  0  0  0  0
  5 17  1  0  0  0  0
  5 18  1  0  0  0  0
  7 19  1  0  0  0  0
M  END
