 xtb: 6.7.1 (edcfbbe)
          04112516293D

 20 19  0     0  0            999 V2000
   -2.3572   -1.2913    0.3092 C   0  0  0  0  0  0  0  0  0  0  0  0
   -2.6744    0.1991    0.3212 C   0  0  0  0  0  0  0  0  0  0  0  0
   -1.6824    1.0324   -0.4917 C   0  0  0  0  0  0  0  0  0  0  0  0
   -0.2824    1.0813    0.1075 C   0  0  0  0  0  0  0  0  0  0  0  0
    0.4210   -0.1294   -0.2077 O   0  0  0  0  0  0  0  0  0  0  0  0
    1.7350   -0.1482   -0.0349 C   0  0  0  0  0  0  0  0  0  0  0  0
    2.3646    0.8055    0.3790 O   0  0  0  0  0  0  0  0  0  0  0  0
    2.3269   -1.4768   -0.3987 C   0  0  0  0  0  0  0  0  0  0  0  0
   -3.1099   -1.8411    0.8690 H   0  0  0  0  0  0  0  0  0  0  0  0
   -2.3425   -1.6669   -0.7110 H   0  0  0  0  0  0  0  0  0  0  0  0
   -1.3860   -1.4831    0.7560 H   0  0  0  0  0  0  0  0  0  0  0  0
   -3.6716    0.3536   -0.0953 H   0  0  0  0  0  0  0  0  0  0  0  0
   -2.6859    0.5615    1.3513 H   0  0  0  0  0  0  0  0  0  0  0  0
   -1.6100    0.6341   -1.5046 H   0  0  0  0  0  0  0  0  0  0  0  0
   -2.0476    2.0581   -0.5520 H   0  0  0  0  0  0  0  0  0  0  0  0
    0.2935    1.9204   -0.2979 H   0  0  0  0  0  0  0  0  0  0  0  0
   -0.3172    1.1891    1.1967 H   0  0  0  0  0  0  0  0  0  0  0  0
    2.4964   -2.0403    0.5164 H   0  0  0  0  0  0  0  0  0  0  0  0
    3.2856   -1.3250   -0.8852 H   0  0  0  0  0  0  0  0  0  0  0  0
    1.6434   -2.0250   -1.0377 H   0  0  0  0  0  0  0  0  0  0  0  0
  1  2  1  0  0  0  0
  2  3  1  0  0  0  0
  3  4  1  0  0  0  0
  4  5  1  0  0  0  0
  5  6  1  0  0  0  0
  6  7  2  0  0  0  0
  6  8  1  0  0  0  0
  1  9  1  0  0  0  0
  1 10  1  0  0  0  0
  1 11  1  0  0  0  0
  2 12  1  0  0  0  0
  2 13  1  0  0  0  0
  3 14  1  0  0  0  0
  3 15  1  0  0  0  0
  4 16  1  0  0  0  0
  4 17  1  0  0  0  0
  8 18  1  0  0  0  0
  8 19  1  0  0  0  0
  8 20  1  0  0  0  0
M  END
