 xtb: 6.7.1 (edcfbbe)
          04112514083D

 16 15  0     0  0            999 V2000
   -2.7059   -0.6808    0.0946 C   0  0  0  0  0  0  0  0  0  0  0  0
   -1.4261   -0.3505   -0.4012 O   0  0  0  0  0  0  0  0  0  0  0  0
   -0.7657    0.6223    0.3817 C   0  0  0  0  0  0  0  0  0  0  0  0
    0.6410    0.8253   -0.1652 C   0  0  0  0  0  0  0  0  0  0  0  0
    1.4742   -0.2084    0.3175 O   0  0  0  0  0  0  0  0  0  0  0  0
    2.7785   -0.1613   -0.2205 C   0  0  0  0  0  0  0  0  0  0  0  0
   -3.1130   -1.4223   -0.5876 H   0  0  0  0  0  0  0  0  0  0  0  0
   -3.3549    0.2016    0.1168 H   0  0  0  0  0  0  0  0  0  0  0  0
   -2.6377   -1.1013    1.1037 H   0  0  0  0  0  0  0  0  0  0  0  0
   -1.3211    1.5705    0.3436 H   0  0  0  0  0  0  0  0  0  0  0  0
   -0.6979    0.2867    1.4255 H   0  0  0  0  0  0  0  0  0  0  0  0
    1.0310    1.8003    0.1608 H   0  0  0  0  0  0  0  0  0  0  0  0
    0.6042    0.8013   -1.2629 H   0  0  0  0  0  0  0  0  0  0  0  0
    3.3208   -0.9906    0.2257 H   0  0  0  0  0  0  0  0  0  0  0  0
    3.2703    0.7846    0.0324 H   0  0  0  0  0  0  0  0  0  0  0  0
    2.7566   -0.2744   -1.3096 H   0  0  0  0  0  0  0  0  0  0  0  0
  1  2  1  0  0  0  0
  2  3  1  0  0  0  0
  3  4  1  0  0  0  0
  4  5  1  0  0  0  0
  5  6  1  0  0  0  0
  1  7  1  0  0  0  0
  1  8  1  0  0  0  0
  1  9  1  0  0  0  0
  3 10  1  0  0  0  0
  3 11  1  0  0  0  0
  4 12  1  0  0  0  0
  4 13  1  0  0  0  0
  6 14  1  0  0  0  0
  6 15  1  0  0  0  0
  6 16  1  0  0  0  0
M  END
