 xtb: 6.7.1 (edcfbbe)
          04112516213D

 19 18  0     0  0            999 V2000
    2.4160   -0.7237   -0.1953 C   0  0  0  0  0  0  0  0  0  0  0  0
    1.6182    0.5029   -0.6241 C   0  0  0  0  0  0  0  0  0  0  0  0
    0.8183    1.1291    0.5195 C   0  0  0  0  0  0  0  0  0  0  0  0
   -0.2436    0.1887    1.1046 C   0  0  0  0  0  0  0  0  0  0  0  0
   -1.2280   -0.2988    0.0708 C   0  0  0  0  0  0  0  0  0  0  0  0
   -1.3549   -1.4816   -0.1854 O   0  0  0  0  0  0  0  0  0  0  0  0
   -2.0413    0.7587   -0.6163 C   0  0  0  0  0  0  0  0  0  0  0  0
    3.0648   -1.0517   -1.0039 H   0  0  0  0  0  0  0  0  0  0  0  0
    3.0338   -0.4958    0.6704 H   0  0  0  0  0  0  0  0  0  0  0  0
    1.7523   -1.5478    0.0549 H   0  0  0  0  0  0  0  0  0  0  0  0
    0.9432    0.2184   -1.4351 H   0  0  0  0  0  0  0  0  0  0  0  0
    2.3062    1.2566   -1.0136 H   0  0  0  0  0  0  0  0  0  0  0  0
    0.3385    2.0407    0.1618 H   0  0  0  0  0  0  0  0  0  0  0  0
    1.5047    1.4061    1.3217 H   0  0  0  0  0  0  0  0  0  0  0  0
    0.2334   -0.6777    1.5639 H   0  0  0  0  0  0  0  0  0  0  0  0
   -0.8003    0.7247    1.8752 H   0  0  0  0  0  0  0  0  0  0  0  0
   -2.3966    1.4940    0.0988 H   0  0  0  0  0  0  0  0  0  0  0  0
   -1.4121    1.2685   -1.3432 H   0  0  0  0  0  0  0  0  0  0  0  0
   -2.8770    0.3032   -1.1406 H   0  0  0  0  0  0  0  0  0  0  0  0
  1  2  1  0  0  0  0
  2  3  1  0  0  0  0
  3  4  1  0  0  0  0
  4  5  1  0  0  0  0
  5  6  2  0  0  0  0
  5  7  1  0  0  0  0
  1  8  1  0  0  0  0
  1  9  1  0  0  0  0
  1 10  1  0  0  0  0
  2 11  1  0  0  0  0
  2 12  1  0  0  0  0
  3 13  1  0  0  0  0
  3 14  1  0  0  0  0
  4 15  1  0  0  0  0
  4 16  1  0  0  0  0
  7 17  1  0  0  0  0
  7 18  1  0  0  0  0
  7 19  1  0  0  0  0
M  END
