 xtb: 6.7.1 (edcfbbe)
          04112516013D

 20 19  0     0  0            999 V2000
   -3.3385    0.7437   -0.5850 C   0  0  0  0  0  0  0  0  0  0  0  0
   -2.8762   -0.4507    0.2424 C   0  0  0  0  0  0  0  0  0  0  0  0
   -1.5016   -0.2447    0.8783 C   0  0  0  0  0  0  0  0  0  0  0  0
   -0.3873   -0.1544   -0.1549 C   0  0  0  0  0  0  0  0  0  0  0  0
    0.8657   -0.1468    0.5447 O   0  0  0  0  0  0  0  0  0  0  0  0
    1.9716    0.0299   -0.1681 C   0  0  0  0  0  0  0  0  0  0  0  0
    1.9639    0.1943   -1.3716 O   0  0  0  0  0  0  0  0  0  0  0  0
    3.1994   -0.0161    0.6895 C   0  0  0  0  0  0  0  0  0  0  0  0
   -4.3547    0.5844   -0.9365 H   0  0  0  0  0  0  0  0  0  0  0  0
   -3.3213    1.6510    0.0139 H   0  0  0  0  0  0  0  0  0  0  0  0
   -2.6998    0.8895   -1.4521 H   0  0  0  0  0  0  0  0  0  0  0  0
   -3.5970   -0.6274    1.0422 H   0  0  0  0  0  0  0  0  0  0  0  0
   -2.8524   -1.3418   -0.3876 H   0  0  0  0  0  0  0  0  0  0  0  0
   -1.5016    0.6659    1.4786 H   0  0  0  0  0  0  0  0  0  0  0  0
   -1.2766   -1.0832    1.5390 H   0  0  0  0  0  0  0  0  0  0  0  0
   -0.4022   -1.0140   -0.8340 H   0  0  0  0  0  0  0  0  0  0  0  0
   -0.4514    0.7570   -0.7569 H   0  0  0  0  0  0  0  0  0  0  0  0
    3.5663   -1.0402    0.7064 H   0  0  0  0  0  0  0  0  0  0  0  0
    2.9543    0.2868    1.7017 H   0  0  0  0  0  0  0  0  0  0  0  0
    3.9680    0.6186    0.2606 H   0  0  0  0  0  0  0  0  0  0  0  0
  1  2  1  0  0  0  0
  2  3  1  0  0  0  0
  3  4  1  0  0  0  0
  4  5  1  0  0  0  0
  5  6  1  0  0  0  0
  6  7  2  0  0  0  0
  6  8  1  0  0  0  0
  1  9  1  0  0  0  0
  1 10  1  0  0  0  0
  1 11  1  0  0  0  0
  2 12  1  0  0  0  0
  2 13  1  0  0  0  0
  3 14  1  0  0  0  0
  3 15  1  0  0  0  0
  4 16  1  0  0  0  0
  4 17  1  0  0  0  0
  8 18  1  0  0  0  0
  8 19  1  0  0  0  0
  8 20  1  0  0  0  0
M  END
