 xtb: 6.7.1 (edcfbbe)
          04112516133D

 33 34  0     0  0            999 V2000
   -4.2735   -0.1644   -1.7090 C   0  0  0  0  0  0  0  0  0  0  0  0
   -3.4408   -0.2053   -0.4638 C   0  0  0  0  0  0  0  0  0  0  0  0
   -4.0201   -0.5731    0.7426 C   0  0  0  0  0  0  0  0  0  0  0  0
   -3.2785   -0.5943    1.9105 C   0  0  0  0  0  0  0  0  0  0  0  0
   -1.9350   -0.2812    1.8714 C   0  0  0  0  0  0  0  0  0  0  0  0
   -1.3304    0.0615    0.6653 C   0  0  0  0  0  0  0  0  0  0  0  0
   -2.0856    0.1390   -0.5097 C   0  0  0  0  0  0  0  0  0  0  0  0
   -1.4786    0.6139   -1.7953 C   0  0  0  0  0  0  0  0  0  0  0  0
    0.0427    0.3752    0.6834 N   0  0  0  0  0  0  0  0  0  0  0  0
    1.0138   -0.2448   -0.0246 C   0  0  0  0  0  0  0  0  0  0  0  0
    0.7278   -1.3848   -0.7992 C   0  0  0  0  0  0  0  0  0  0  0  0
    1.7020   -2.0062   -1.5382 C   0  0  0  0  0  0  0  0  0  0  0  0
    3.0118   -1.5253   -1.5372 C   0  0  0  0  0  0  0  0  0  0  0  0
    3.3271   -0.4355   -0.7648 C   0  0  0  0  0  0  0  0  0  0  0  0
    2.3550    0.2198    0.0066 C   0  0  0  0  0  0  0  0  0  0  0  0
    2.7505    1.3485    0.8325 C   0  0  0  0  0  0  0  0  0  0  0  0
    2.0142    1.9628    1.6040 O   0  0  0  0  0  0  0  0  0  0  0  0
    4.0323    1.7045    0.7130 O   0  0  0  0  0  0  0  0  0  0  0  0
   -5.2654   -0.5636   -1.5167 H   0  0  0  0  0  0  0  0  0  0  0  0
   -4.3789    0.8601   -2.0640 H   0  0  0  0  0  0  0  0  0  0  0  0
   -3.8083   -0.7455   -2.5026 H   0  0  0  0  0  0  0  0  0  0  0  0
   -5.0676   -0.8344    0.7700 H   0  0  0  0  0  0  0  0  0  0  0  0
   -3.7442   -0.8646    2.8458 H   0  0  0  0  0  0  0  0  0  0  0  0
   -1.3361   -0.3062    2.7694 H   0  0  0  0  0  0  0  0  0  0  0  0
   -0.5098    1.0740   -1.6236 H   0  0  0  0  0  0  0  0  0  0  0  0
   -1.3443   -0.2115   -2.4937 H   0  0  0  0  0  0  0  0  0  0  0  0
   -2.1309    1.3463   -2.2657 H   0  0  0  0  0  0  0  0  0  0  0  0
    0.3575    1.0585    1.3640 H   0  0  0  0  0  0  0  0  0  0  0  0
   -0.2769   -1.7760   -0.7808 H   0  0  0  0  0  0  0  0  0  0  0  0
    1.4537   -2.8813   -2.1194 H   0  0  0  0  0  0  0  0  0  0  0  0
    3.7713   -2.0148   -2.1251 H   0  0  0  0  0  0  0  0  0  0  0  0
    4.3387   -0.0629   -0.7315 H   0  0  0  0  0  0  0  0  0  0  0  0
    4.2411    2.4604    1.2927 H   0  0  0  0  0  0  0  0  0  0  0  0
  1  2  1  0  0  0  0
  2  3  4  0  0  0  0
  3  4  4  0  0  0  0
  4  5  4  0  0  0  0
  5  6  4  0  0  0  0
  2  7  4  0  0  0  0
  6  7  4  0  0  0  0
  7  8  1  0  0  0  0
  6  9  1  0  0  0  0
  9 10  4  0  0  0  0
 10 11  4  0  0  0  0
 11 12  2  0  0  0  0
 12 13  4  0  0  0  0
 13 14  2  0  0  0  0
 10 15  4  0  0  0  0
 14 15  4  0  0  0  0
 15 16  1  0  0  0  0
 16 17  2  0  0  0  0
 16 18  1  0  0  0  0
  1 19  1  0  0  0  0
  1 20  1  0  0  0  0
  1 21  1  0  0  0  0
  3 22  1  0  0  0  0
  4 23  1  0  0  0  0
  5 24  1  0  0  0  0
  8 25  1  0  0  0  0
  8 26  1  0  0  0  0
  8 27  1  0  0  0  0
  9 28  1  0  0  0  0
 11 29  1  0  0  0  0
 12 30  1  0  0  0  0
 13 31  1  0  0  0  0
 14 32  1  0  0  0  0
 18 33  1  0  0  0  0
M  END
