 xtb: 6.7.1 (edcfbbe)
          04112516153D

 26 25  0     0  0            999 V2000
    2.7088   -0.9513   -1.2158 C   0  0  0  0  0  0  0  0  0  0  0  0
    1.7028   -0.2415   -0.3133 C   0  0  0  0  0  0  0  0  0  0  0  0
    1.2242   -1.1468    0.8101 C   0  0  0  0  0  0  0  0  0  0  0  0
    0.6339    0.3447   -1.1859 C   0  0  0  0  0  0  0  0  0  0  0  0
   -0.6236    0.3883   -1.1302 N   0  0  0  0  0  0  0  0  0  0  0  0
   -1.2709   -0.2292   -0.0450 O   0  0  0  0  0  0  0  0  0  0  0  0
   -2.6456   -0.1952   -0.1361 C   0  0  0  0  0  0  0  0  0  0  0  0
   -3.2564    0.2807   -1.0669 O   0  0  0  0  0  0  0  0  0  0  0  0
   -3.1650   -0.7757    0.9467 N   0  0  0  0  0  0  0  0  0  0  0  0
   -4.5897   -0.9110    1.1551 C   0  0  0  0  0  0  0  0  0  0  0  0
    2.4629    1.3085    0.4207 S   0  0  0  0  0  0  0  0  0  0  0  0
    4.0869    0.7206    0.9977 C   0  0  0  0  0  0  0  0  0  0  0  0
    3.1546   -0.2540   -1.9212 H   0  0  0  0  0  0  0  0  0  0  0  0
    3.4939   -1.4145   -0.6249 H   0  0  0  0  0  0  0  0  0  0  0  0
    2.1960   -1.7312   -1.7758 H   0  0  0  0  0  0  0  0  0  0  0  0
    0.6503   -1.9750    0.4000 H   0  0  0  0  0  0  0  0  0  0  0  0
    0.5985   -0.5942    1.5058 H   0  0  0  0  0  0  0  0  0  0  0  0
    2.0770   -1.5507    1.3511 H   0  0  0  0  0  0  0  0  0  0  0  0
    1.0055    0.8698   -2.0579 H   0  0  0  0  0  0  0  0  0  0  0  0
   -2.5381   -1.1262    1.6545 H   0  0  0  0  0  0  0  0  0  0  0  0
   -4.8898   -0.3806    2.0577 H   0  0  0  0  0  0  0  0  0  0  0  0
   -4.8570   -1.9631    1.2427 H   0  0  0  0  0  0  0  0  0  0  0  0
   -5.0949   -0.4777    0.2945 H   0  0  0  0  0  0  0  0  0  0  0  0
    4.4993    1.5518    1.5596 H   0  0  0  0  0  0  0  0  0  0  0  0
    4.7239    0.4928    0.1505 H   0  0  0  0  0  0  0  0  0  0  0  0
    3.9600   -0.1378    1.6479 H   0  0  0  0  0  0  0  0  0  0  0  0
  1  2  1  0  0  0  0
  2  3  1  0  0  0  0
  2  4  1  0  0  0  0
  4  5  2  0  0  0  0
  5  6  1  0  0  0  0
  6  7  1  0  0  0  0
  7  8  2  0  0  0  0
  7  9  4  0  0  0  0
  9 10  1  0  0  0  0
  2 11  1  0  0  0  0
 11 12  1  0  0  0  0
  1 13  1  0  0  0  0
  1 14  1  0  0  0  0
  1 15  1  0  0  0  0
  3 16  1  0  0  0  0
  3 17  1  0  0  0  0
  3 18  1  0  0  0  0
  4 19  1  0  0  0  0
  9 20  1  0  0  0  0
 10 21  1  0  0  0  0
 10 22  1  0  0  0  0
 10 23  1  0  0  0  0
 12 24  1  0  0  0  0
 12 25  1  0  0  0  0
 12 26  1  0  0  0  0
M  END
