 xtb: 6.7.1 (edcfbbe)
          04112516213D

 19 18  0     0  0            999 V2000
    2.9762   -0.2564   -0.4831 C   0  0  0  0  0  0  0  0  0  0  0  0
    2.1823    0.6888    0.4110 C   0  0  0  0  0  0  0  0  0  0  0  0
    0.7651    0.1965    0.7048 C   0  0  0  0  0  0  0  0  0  0  0  0
   -0.1246    0.1696   -0.5486 C   0  0  0  0  0  0  0  0  0  0  0  0
   -1.5184   -0.2411   -0.1462 C   0  0  0  0  0  0  0  0  0  0  0  0
   -1.8411   -1.4097   -0.0452 O   0  0  0  0  0  0  0  0  0  0  0  0
   -2.4620    0.8864    0.1448 C   0  0  0  0  0  0  0  0  0  0  0  0
    2.9902   -1.2582   -0.0594 H   0  0  0  0  0  0  0  0  0  0  0  0
    2.5454   -0.3095   -1.4792 H   0  0  0  0  0  0  0  0  0  0  0  0
    4.0022    0.0904   -0.5774 H   0  0  0  0  0  0  0  0  0  0  0  0
    2.1326    1.6746   -0.0552 H   0  0  0  0  0  0  0  0  0  0  0  0
    2.7064    0.7973    1.3628 H   0  0  0  0  0  0  0  0  0  0  0  0
    0.3119    0.8551    1.4489 H   0  0  0  0  0  0  0  0  0  0  0  0
    0.8048   -0.8085    1.1306 H   0  0  0  0  0  0  0  0  0  0  0  0
   -0.1353    1.1561   -1.0095 H   0  0  0  0  0  0  0  0  0  0  0  0
    0.2690   -0.5658   -1.2501 H   0  0  0  0  0  0  0  0  0  0  0  0
   -2.7203    1.3697   -0.7955 H   0  0  0  0  0  0  0  0  0  0  0  0
   -3.3679    0.5160    0.6163 H   0  0  0  0  0  0  0  0  0  0  0  0
   -1.9781    1.6244    0.7783 H   0  0  0  0  0  0  0  0  0  0  0  0
  1  2  1  0  0  0  0
  2  3  1  0  0  0  0
  3  4  1  0  0  0  0
  4  5  1  0  0  0  0
  5  6  2  0  0  0  0
  5  7  1  0  0  0  0
  1  8  1  0  0  0  0
  1  9  1  0  0  0  0
  1 10  1  0  0  0  0
  2 11  1  0  0  0  0
  2 12  1  0  0  0  0
  3 13  1  0  0  0  0
  3 14  1  0  0  0  0
  4 15  1  0  0  0  0
  4 16  1  0  0  0  0
  7 17  1  0  0  0  0
  7 18  1  0  0  0  0
  7 19  1  0  0  0  0
M  END
