 xtb: 6.7.1 (edcfbbe)
          04112514053D

 17 16  0     0  0            999 V2000
    2.4265   -1.2259    0.1947 C   0  0  0  0  0  0  0  0  0  0  0  0
    2.2428    0.1362   -0.4664 C   0  0  0  0  0  0  0  0  0  0  0  0
    1.3044    1.0387    0.3332 C   0  0  0  0  0  0  0  0  0  0  0  0
   -0.1326    0.6751    0.3179 C   0  0  0  0  0  0  0  0  0  0  0  0
   -0.7525   -0.2129   -0.4735 C   0  0  0  0  0  0  0  0  0  0  0  0
   -2.1799   -0.4309   -0.3746 C   0  0  0  0  0  0  0  0  0  0  0  0
   -2.9356    0.1200    0.4074 O   0  0  0  0  0  0  0  0  0  0  0  0
    3.0748   -1.8568   -0.4081 H   0  0  0  0  0  0  0  0  0  0  0  0
    2.8793   -1.1116    1.1770 H   0  0  0  0  0  0  0  0  0  0  0  0
    1.4716   -1.7302    0.3186 H   0  0  0  0  0  0  0  0  0  0  0  0
    1.8627    0.0123   -1.4809 H   0  0  0  0  0  0  0  0  0  0  0  0
    3.2152    0.6264   -0.5390 H   0  0  0  0  0  0  0  0  0  0  0  0
    1.3711    2.0645   -0.0448 H   0  0  0  0  0  0  0  0  0  0  0  0
    1.6344    1.0774    1.3751 H   0  0  0  0  0  0  0  0  0  0  0  0
   -0.7563    1.2162    1.0214 H   0  0  0  0  0  0  0  0  0  0  0  0
   -0.2297   -0.7965   -1.2135 H   0  0  0  0  0  0  0  0  0  0  0  0
   -2.5846   -1.1723   -1.0880 H   0  0  0  0  0  0  0  0  0  0  0  0
  1  2  1  0  0  0  0
  2  3  1  0  0  0  0
  3  4  1  0  0  0  0
  4  5  2  0  0  0  0
  5  6  1  0  0  0  0
  6  7  2  0  0  0  0
  1  8  1  0  0  0  0
  1  9  1  0  0  0  0
  1 10  1  0  0  0  0
  2 11  1  0  0  0  0
  2 12  1  0  0  0  0
  3 13  1  0  0  0  0
  3 14  1  0  0  0  0
  4 15  1  0  0  0  0
  5 16  1  0  0  0  0
  6 17  1  0  0  0  0
M  END
