 xtb: 6.7.1 (edcfbbe)
          04112516293D

 20 19  0     0  0            999 V2000
   -3.6657    0.0512   -0.7960 C   0  0  0  0  0  0  0  0  0  0  0  0
   -2.6358   -0.2224    0.2937 C   0  0  0  0  0  0  0  0  0  0  0  0
   -1.2528    0.2863   -0.1056 C   0  0  0  0  0  0  0  0  0  0  0  0
   -0.2229    0.0179    0.9878 C   0  0  0  0  0  0  0  0  0  0  0  0
    1.0500    0.5876    0.6557 O   0  0  0  0  0  0  0  0  0  0  0  0
    1.8816   -0.1183   -0.1054 C   0  0  0  0  0  0  0  0  0  0  0  0
    1.6325   -1.2335   -0.5135 O   0  0  0  0  0  0  0  0  0  0  0  0
    3.1466    0.6377   -0.3791 C   0  0  0  0  0  0  0  0  0  0  0  0
   -3.3789   -0.4406   -1.7225 H   0  0  0  0  0  0  0  0  0  0  0  0
   -4.6422   -0.3203   -0.4972 H   0  0  0  0  0  0  0  0  0  0  0  0
   -3.7457    1.1189   -0.9851 H   0  0  0  0  0  0  0  0  0  0  0  0
   -2.9456    0.2664    1.2191 H   0  0  0  0  0  0  0  0  0  0  0  0
   -2.5821   -1.2959    0.4840 H   0  0  0  0  0  0  0  0  0  0  0  0
   -0.9276   -0.2100   -1.0233 H   0  0  0  0  0  0  0  0  0  0  0  0
   -1.2923    1.3607   -0.2957 H   0  0  0  0  0  0  0  0  0  0  0  0
   -0.5090    0.4996    1.9237 H   0  0  0  0  0  0  0  0  0  0  0  0
   -0.0999   -1.0592    1.1397 H   0  0  0  0  0  0  0  0  0  0  0  0
    2.9150    1.4897   -1.0134 H   0  0  0  0  0  0  0  0  0  0  0  0
    3.8592   -0.0109   -0.8774 H   0  0  0  0  0  0  0  0  0  0  0  0
    3.5535    1.0129    0.5552 H   0  0  0  0  0  0  0  0  0  0  0  0
  1  2  1  0  0  0  0
  2  3  1  0  0  0  0
  3  4  1  0  0  0  0
  4  5  1  0  0  0  0
  5  6  1  0  0  0  0
  6  7  2  0  0  0  0
  6  8  1  0  0  0  0
  1  9  1  0  0  0  0
  1 10  1  0  0  0  0
  1 11  1  0  0  0  0
  2 12  1  0  0  0  0
  2 13  1  0  0  0  0
  3 14  1  0  0  0  0
  3 15  1  0  0  0  0
  4 16  1  0  0  0  0
  4 17  1  0  0  0  0
  8 18  1  0  0  0  0
  8 19  1  0  0  0  0
  8 20  1  0  0  0  0
M  END
