 xtb: 6.7.1 (edcfbbe)
          04112517153D

 20 19  0     0  0            999 V2000
   -3.2924   -0.8406   -0.3576 C   0  0  0  0  0  0  0  0  0  0  0  0
   -1.8945   -0.6188    0.2072 C   0  0  0  0  0  0  0  0  0  0  0  0
   -1.5019    0.8567    0.1730 C   0  0  0  0  0  0  0  0  0  0  0  0
   -0.1154    1.0927    0.7799 C   0  0  0  0  0  0  0  0  0  0  0  0
    0.9537    0.4483   -0.0629 C   0  0  0  0  0  0  0  0  0  0  0  0
    1.1127    0.6316   -1.2515 O   0  0  0  0  0  0  0  0  0  0  0  0
    1.7242   -0.3634    0.6541 O   0  0  0  0  0  0  0  0  0  0  0  0
    2.7896   -1.0356   -0.0228 C   0  0  0  0  0  0  0  0  0  0  0  0
   -3.5533   -1.8952   -0.3276 H   0  0  0  0  0  0  0  0  0  0  0  0
   -4.0275   -0.2863    0.2209 H   0  0  0  0  0  0  0  0  0  0  0  0
   -3.3422   -0.5028   -1.3902 H   0  0  0  0  0  0  0  0  0  0  0  0
   -1.8560   -0.9799    1.2372 H   0  0  0  0  0  0  0  0  0  0  0  0
   -1.1712   -1.1963   -0.3745 H   0  0  0  0  0  0  0  0  0  0  0  0
   -2.2359    1.4410    0.7290 H   0  0  0  0  0  0  0  0  0  0  0  0
   -1.4955    1.2074   -0.8611 H   0  0  0  0  0  0  0  0  0  0  0  0
   -0.0537    0.6883    1.7895 H   0  0  0  0  0  0  0  0  0  0  0  0
    0.0896    2.1642    0.8058 H   0  0  0  0  0  0  0  0  0  0  0  0
    2.3882   -1.6602   -0.8218 H   0  0  0  0  0  0  0  0  0  0  0  0
    3.2836   -1.6376    0.7330 H   0  0  0  0  0  0  0  0  0  0  0  0
    3.4756   -0.3060   -0.4546 H   0  0  0  0  0  0  0  0  0  0  0  0
  1  2  1  0  0  0  0
  2  3  1  0  0  0  0
  3  4  1  0  0  0  0
  4  5  1  0  0  0  0
  5  6  2  0  0  0  0
  5  7  1  0  0  0  0
  7  8  1  0  0  0  0
  1  9  1  0  0  0  0
  1 10  1  0  0  0  0
  1 11  1  0  0  0  0
  2 12  1  0  0  0  0
  2 13  1  0  0  0  0
  3 14  1  0  0  0  0
  3 15  1  0  0  0  0
  4 16  1  0  0  0  0
  4 17  1  0  0  0  0
  8 18  1  0  0  0  0
  8 19  1  0  0  0  0
  8 20  1  0  0  0  0
M  END
