 xtb: 6.7.1 (edcfbbe)
          04112516353D

 13 12  0     0  0            999 V2000
    2.8735   -0.0019   -0.2672 C   0  0  0  0  0  0  0  0  0  0  0  0
    1.4921   -0.0317    0.2849 C   0  0  0  0  0  0  0  0  0  0  0  0
    1.0513   -0.8907    1.0150 O   0  0  0  0  0  0  0  0  0  0  0  0
    0.6042    1.1293   -0.1653 C   0  0  0  0  0  0  0  0  0  0  0  0
   -0.7169    0.9733    0.3302 O   0  0  0  0  0  0  0  0  0  0  0  0
   -1.4129   -0.0908   -0.1542 N   0  0  0  0  0  0  0  0  0  0  0  0
   -0.9308   -0.6990   -1.0592 O   0  0  0  0  0  0  0  0  0  0  0  0
   -2.4597   -0.2698    0.3822 O   0  0  0  0  0  0  0  0  0  0  0  0
    3.5185   -0.6599    0.3073 H   0  0  0  0  0  0  0  0  0  0  0  0
    2.8322   -0.3687   -1.2918 H   0  0  0  0  0  0  0  0  0  0  0  0
    3.2661    1.0092   -0.2850 H   0  0  0  0  0  0  0  0  0  0  0  0
    0.6060    1.2011   -1.2572 H   0  0  0  0  0  0  0  0  0  0  0  0
    0.9457    2.0664    0.2755 H   0  0  0  0  0  0  0  0  0  0  0  0
  1  2  1  0  0  0  0
  2  3  2  0  0  0  0
  2  4  1  0  0  0  0
  4  5  1  0  0  0  0
  5  6  1  0  0  0  0
  6  7  4  0  0  0  0
  6  8  4  0  0  0  0
  1  9  1  0  0  0  0
  1 10  1  0  0  0  0
  1 11  1  0  0  0  0
  4 12  1  0  0  0  0
  4 13  1  0  0  0  0
M  END
