 xtb: 6.7.1 (edcfbbe)
          04112516013D

 20 19  0     0  0            999 V2000
   -3.8988   -0.4957    0.1882 C   0  0  0  0  0  0  0  0  0  0  0  0
   -2.5768    0.1851    0.5221 C   0  0  0  0  0  0  0  0  0  0  0  0
   -1.5542   -0.0017   -0.5978 C   0  0  0  0  0  0  0  0  0  0  0  0
   -0.2133    0.6657   -0.2878 C   0  0  0  0  0  0  0  0  0  0  0  0
    0.8158   -0.3347   -0.3331 O   0  0  0  0  0  0  0  0  0  0  0  0
    2.0340    0.0078    0.0648 C   0  0  0  0  0  0  0  0  0  0  0  0
    2.3114    1.1225    0.4612 O   0  0  0  0  0  0  0  0  0  0  0  0
    2.9980   -1.1355   -0.0356 C   0  0  0  0  0  0  0  0  0  0  0  0
   -4.6133   -0.3537    0.9945 H   0  0  0  0  0  0  0  0  0  0  0  0
   -4.3212   -0.0798   -0.7233 H   0  0  0  0  0  0  0  0  0  0  0  0
   -3.7514   -1.5629    0.0424 H   0  0  0  0  0  0  0  0  0  0  0  0
   -2.7468    1.2521    0.6797 H   0  0  0  0  0  0  0  0  0  0  0  0
   -2.1773   -0.2306    1.4492 H   0  0  0  0  0  0  0  0  0  0  0  0
   -1.3672   -1.0667   -0.7443 H   0  0  0  0  0  0  0  0  0  0  0  0
   -1.9596    0.3964   -1.5276 H   0  0  0  0  0  0  0  0  0  0  0  0
    0.0424    1.4470   -1.0097 H   0  0  0  0  0  0  0  0  0  0  0  0
   -0.2049    1.1189    0.7092 H   0  0  0  0  0  0  0  0  0  0  0  0
    2.4918   -2.0129   -0.4222 H   0  0  0  0  0  0  0  0  0  0  0  0
    3.4121   -1.3365    0.9491 H   0  0  0  0  0  0  0  0  0  0  0  0
    3.8183   -0.8494   -0.6888 H   0  0  0  0  0  0  0  0  0  0  0  0
  1  2  1  0  0  0  0
  2  3  1  0  0  0  0
  3  4  1  0  0  0  0
  4  5  1  0  0  0  0
  5  6  1  0  0  0  0
  6  7  2  0  0  0  0
  6  8  1  0  0  0  0
  1  9  1  0  0  0  0
  1 10  1  0  0  0  0
  1 11  1  0  0  0  0
  2 12  1  0  0  0  0
  2 13  1  0  0  0  0
  3 14  1  0  0  0  0
  3 15  1  0  0  0  0
  4 16  1  0  0  0  0
  4 17  1  0  0  0  0
  8 18  1  0  0  0  0
  8 19  1  0  0  0  0
  8 20  1  0  0  0  0
M  END
