 xtb: 6.7.1 (edcfbbe)
          04112514083D

 16 15  0     0  0            999 V2000
   -2.3872   -0.9484   -0.0204 C   0  0  0  0  0  0  0  0  0  0  0  0
   -1.8543    0.3585   -0.1280 O   0  0  0  0  0  0  0  0  0  0  0  0
   -0.4892    0.4092   -0.4802 C   0  0  0  0  0  0  0  0  0  0  0  0
    0.4470   -0.0321    0.6619 C   0  0  0  0  0  0  0  0  0  0  0  0
    1.7629    0.4560    0.5194 O   0  0  0  0  0  0  0  0  0  0  0  0
    2.5114   -0.1597   -0.5124 C   0  0  0  0  0  0  0  0  0  0  0  0
   -2.1920   -1.5228   -0.9318 H   0  0  0  0  0  0  0  0  0  0  0  0
   -3.4589   -0.8209    0.1102 H   0  0  0  0  0  0  0  0  0  0  0  0
   -1.9751   -1.4811    0.8407 H   0  0  0  0  0  0  0  0  0  0  0  0
   -0.3144   -0.1963   -1.3806 H   0  0  0  0  0  0  0  0  0  0  0  0
   -0.2889    1.4596   -0.7063 H   0  0  0  0  0  0  0  0  0  0  0  0
    0.4638   -1.1278    0.7476 H   0  0  0  0  0  0  0  0  0  0  0  0
    0.0798    0.3983    1.5970 H   0  0  0  0  0  0  0  0  0  0  0  0
    2.5022   -1.2488   -0.4009 H   0  0  0  0  0  0  0  0  0  0  0  0
    3.5272    0.2118   -0.4029 H   0  0  0  0  0  0  0  0  0  0  0  0
    2.1292    0.1081   -1.5010 H   0  0  0  0  0  0  0  0  0  0  0  0
  1  2  1  0  0  0  0
  2  3  1  0  0  0  0
  3  4  1  0  0  0  0
  4  5  1  0  0  0  0
  5  6  1  0  0  0  0
  1  7  1  0  0  0  0
  1  8  1  0  0  0  0
  1  9  1  0  0  0  0
  3 10  1  0  0  0  0
  3 11  1  0  0  0  0
  4 12  1  0  0  0  0
  4 13  1  0  0  0  0
  6 14  1  0  0  0  0
  6 15  1  0  0  0  0
  6 16  1  0  0  0  0
M  END
