 xtb: 6.7.1 (edcfbbe)
          04112516093D

 19 18  0     0  0            999 V2000
    2.9816   -0.4127   -0.2518 C   0  0  0  0  0  0  0  0  0  0  0  0
    2.1846    0.8005    0.2138 C   0  0  0  0  0  0  0  0  0  0  0  0
    0.7463    0.4673    0.6138 C   0  0  0  0  0  0  0  0  0  0  0  0
   -0.1165    0.0502   -0.5861 C   0  0  0  0  0  0  0  0  0  0  0  0
   -1.5205   -0.2882   -0.1513 C   0  0  0  0  0  0  0  0  0  0  0  0
   -1.9257   -1.4356   -0.1371 O   0  0  0  0  0  0  0  0  0  0  0  0
   -2.3745    0.8649    0.2858 C   0  0  0  0  0  0  0  0  0  0  0  0
    4.0169   -0.1341   -0.4323 H   0  0  0  0  0  0  0  0  0  0  0  0
    2.9638   -1.1930    0.5060 H   0  0  0  0  0  0  0  0  0  0  0  0
    2.5771   -0.8204   -1.1743 H   0  0  0  0  0  0  0  0  0  0  0  0
    2.1740    1.5537   -0.5763 H   0  0  0  0  0  0  0  0  0  0  0  0
    2.6850    1.2359    1.0813 H   0  0  0  0  0  0  0  0  0  0  0  0
    0.3045    1.3472    1.0829 H   0  0  0  0  0  0  0  0  0  0  0  0
    0.7523   -0.3421    1.3473 H   0  0  0  0  0  0  0  0  0  0  0  0
   -0.1455    0.8679   -1.3068 H   0  0  0  0  0  0  0  0  0  0  0  0
    0.3138   -0.8329   -1.0591 H   0  0  0  0  0  0  0  0  0  0  0  0
   -2.2709    1.7017   -0.3976 H   0  0  0  0  0  0  0  0  0  0  0  0
   -3.4136    0.5549    0.3537 H   0  0  0  0  0  0  0  0  0  0  0  0
   -2.0438    1.1872    1.2712 H   0  0  0  0  0  0  0  0  0  0  0  0
  1  2  1  0  0  0  0
  2  3  1  0  0  0  0
  3  4  1  0  0  0  0
  4  5  1  0  0  0  0
  5  6  2  0  0  0  0
  5  7  1  0  0  0  0
  1  8  1  0  0  0  0
  1  9  1  0  0  0  0
  1 10  1  0  0  0  0
  2 11  1  0  0  0  0
  2 12  1  0  0  0  0
  3 13  1  0  0  0  0
  3 14  1  0  0  0  0
  4 15  1  0  0  0  0
  4 16  1  0  0  0  0
  7 17  1  0  0  0  0
  7 18  1  0  0  0  0
  7 19  1  0  0  0  0
M  END
