 xtb: 6.7.1 (edcfbbe)
          04112514343D

 18 17  0     0  0            999 V2000
    1.8452    1.1191   -0.0850 C   0  0  0  0  0  0  0  0  0  0  0  0
    1.6913   -0.3899   -0.2446 C   0  0  0  0  0  0  0  0  0  0  0  0
    0.5781   -0.9744    0.6320 C   0  0  0  0  0  0  0  0  0  0  0  0
   -0.7936   -1.0516   -0.0573 C   0  0  0  0  0  0  0  0  0  0  0  0
   -1.3250    0.2835   -0.4736 C   0  0  0  0  0  0  0  0  0  0  0  0
   -2.2322    0.9639    0.2026 C   0  0  0  0  0  0  0  0  0  0  0  0
    2.6164    1.4945   -0.7539 H   0  0  0  0  0  0  0  0  0  0  0  0
    2.1310    1.3623    0.9363 H   0  0  0  0  0  0  0  0  0  0  0  0
    0.9138    1.6327   -0.3068 H   0  0  0  0  0  0  0  0  0  0  0  0
    1.4944   -0.6309   -1.2911 H   0  0  0  0  0  0  0  0  0  0  0  0
    2.6400   -0.8605    0.0238 H   0  0  0  0  0  0  0  0  0  0  0  0
    0.8500   -1.9901    0.9273 H   0  0  0  0  0  0  0  0  0  0  0  0
    0.4864   -0.3790    1.5425 H   0  0  0  0  0  0  0  0  0  0  0  0
   -0.7061   -1.6934   -0.9372 H   0  0  0  0  0  0  0  0  0  0  0  0
   -1.4959   -1.5173    0.6376 H   0  0  0  0  0  0  0  0  0  0  0  0
   -0.9194    0.6881   -1.3914 H   0  0  0  0  0  0  0  0  0  0  0  0
   -2.5869    1.9273   -0.1226 H   0  0  0  0  0  0  0  0  0  0  0  0
   -2.6606    0.5820    1.1151 H   0  0  0  0  0  0  0  0  0  0  0  0
  1  2  1  0  0  0  0
  2  3  1  0  0  0  0
  3  4  1  0  0  0  0
  4  5  1  0  0  0  0
  5  6  2  0  0  0  0
  1  7  1  0  0  0  0
  1  8  1  0  0  0  0
  1  9  1  0  0  0  0
  2 10  1  0  0  0  0
  2 11  1  0  0  0  0
  3 12  1  0  0  0  0
  3 13  1  0  0  0  0
  4 14  1  0  0  0  0
  4 15  1  0  0  0  0
  5 16  1  0  0  0  0
  6 17  1  0  0  0  0
  6 18  1  0  0  0  0
M  END
