 xtb: 6.7.1 (edcfbbe)
          04112516153D

 26 25  0     0  0            999 V2000
    2.8055   -0.9497   -1.1663 C   0  0  0  0  0  0  0  0  0  0  0  0
    1.7239   -0.2772   -0.3256 C   0  0  0  0  0  0  0  0  0  0  0  0
    1.2510   -1.1818    0.8017 C   0  0  0  0  0  0  0  0  0  0  0  0
    0.6565    0.2244   -1.2514 C   0  0  0  0  0  0  0  0  0  0  0  0
   -0.6009    0.2746   -1.1962 N   0  0  0  0  0  0  0  0  0  0  0  0
   -1.2433   -0.2392   -0.0556 O   0  0  0  0  0  0  0  0  0  0  0  0
   -2.6184   -0.2088   -0.1409 C   0  0  0  0  0  0  0  0  0  0  0  0
   -3.2337    0.1813   -1.1081 O   0  0  0  0  0  0  0  0  0  0  0  0
   -3.1328   -0.6860    0.9934 N   0  0  0  0  0  0  0  0  0  0  0  0
   -4.5566   -0.7904    1.2245 C   0  0  0  0  0  0  0  0  0  0  0  0
    2.3622    1.3345    0.3924 S   0  0  0  0  0  0  0  0  0  0  0  0
    3.9765    0.8484    1.0808 C   0  0  0  0  0  0  0  0  0  0  0  0
    2.3633   -1.7750   -1.7211 H   0  0  0  0  0  0  0  0  0  0  0  0
    3.2371   -0.2466   -1.8747 H   0  0  0  0  0  0  0  0  0  0  0  0
    3.5931   -1.3472   -0.5325 H   0  0  0  0  0  0  0  0  0  0  0  0
    2.1048   -1.5575    1.3609 H   0  0  0  0  0  0  0  0  0  0  0  0
    0.7057   -2.0293    0.3917 H   0  0  0  0  0  0  0  0  0  0  0  0
    0.5987   -0.6391    1.4803 H   0  0  0  0  0  0  0  0  0  0  0  0
    1.0260    0.6707   -2.1669 H   0  0  0  0  0  0  0  0  0  0  0  0
   -2.5026   -0.9691    1.7280 H   0  0  0  0  0  0  0  0  0  0  0  0
   -4.8279   -1.8261    1.4233 H   0  0  0  0  0  0  0  0  0  0  0  0
   -5.0659   -0.4463    0.3269 H   0  0  0  0  0  0  0  0  0  0  0  0
   -4.8478   -0.1669    2.0688 H   0  0  0  0  0  0  0  0  0  0  0  0
    4.3153    1.7178    1.6339 H   0  0  0  0  0  0  0  0  0  0  0  0
    4.6717    0.6241    0.2797 H   0  0  0  0  0  0  0  0  0  0  0  0
    3.8530    0.0073    1.7538 H   0  0  0  0  0  0  0  0  0  0  0  0
  1  2  1  0  0  0  0
  2  3  1  0  0  0  0
  2  4  1  0  0  0  0
  4  5  2  0  0  0  0
  5  6  1  0  0  0  0
  6  7  1  0  0  0  0
  7  8  2  0  0  0  0
  7  9  4  0  0  0  0
  9 10  1  0  0  0  0
  2 11  1  0  0  0  0
 11 12  1  0  0  0  0
  1 13  1  0  0  0  0
  1 14  1  0  0  0  0
  1 15  1  0  0  0  0
  3 16  1  0  0  0  0
  3 17  1  0  0  0  0
  3 18  1  0  0  0  0
  4 19  1  0  0  0  0
  9 20  1  0  0  0  0
 10 21  1  0  0  0  0
 10 22  1  0  0  0  0
 10 23  1  0  0  0  0
 12 24  1  0  0  0  0
 12 25  1  0  0  0  0
 12 26  1  0  0  0  0
M  END
