 xtb: 6.7.1 (edcfbbe)
          04112516153D

 26 25  0     0  0            999 V2000
    2.9419   -1.3966   -1.1216 C   0  0  0  0  0  0  0  0  0  0  0  0
    1.8840   -0.6141   -0.3470 C   0  0  0  0  0  0  0  0  0  0  0  0
    1.3706   -1.4209    0.8320 C   0  0  0  0  0  0  0  0  0  0  0  0
    0.8737   -0.0544   -1.2901 C   0  0  0  0  0  0  0  0  0  0  0  0
   -0.3731    0.1383   -1.2305 N   0  0  0  0  0  0  0  0  0  0  0  0
   -1.0657   -0.3324   -0.0928 O   0  0  0  0  0  0  0  0  0  0  0  0
   -2.3989    0.0087   -0.0824 C   0  0  0  0  0  0  0  0  0  0  0  0
   -2.9193    0.7472   -0.8892 O   0  0  0  0  0  0  0  0  0  0  0  0
   -2.9894   -0.5817    0.9579 N   0  0  0  0  0  0  0  0  0  0  0  0
   -4.3941   -0.4152    1.2592 C   0  0  0  0  0  0  0  0  0  0  0  0
    2.7528    0.9387    0.2403 S   0  0  0  0  0  0  0  0  0  0  0  0
    1.4653    1.8196    1.1661 C   0  0  0  0  0  0  0  0  0  0  0  0
    3.3604   -0.7907   -1.9213 H   0  0  0  0  0  0  0  0  0  0  0  0
    3.7477   -1.6857   -0.4523 H   0  0  0  0  0  0  0  0  0  0  0  0
    2.4964   -2.2914   -1.5498 H   0  0  0  0  0  0  0  0  0  0  0  0
    0.6839   -0.8451    1.4449 H   0  0  0  0  0  0  0  0  0  0  0  0
    2.2119   -1.7361    1.4449 H   0  0  0  0  0  0  0  0  0  0  0  0
    0.8478   -2.3025    0.4669 H   0  0  0  0  0  0  0  0  0  0  0  0
    1.2872    0.3456   -2.2084 H   0  0  0  0  0  0  0  0  0  0  0  0
   -2.4395   -1.1894    1.5454 H   0  0  0  0  0  0  0  0  0  0  0  0
   -4.5159    0.0124    2.2532 H   0  0  0  0  0  0  0  0  0  0  0  0
   -4.9054   -1.3754    1.2086 H   0  0  0  0  0  0  0  0  0  0  0  0
   -4.8164    0.2600    0.5181 H   0  0  0  0  0  0  0  0  0  0  0  0
    1.8621    2.8135    1.3440 H   0  0  0  0  0  0  0  0  0  0  0  0
    1.2774    1.3196    2.1109 H   0  0  0  0  0  0  0  0  0  0  0  0
    0.5610    1.8873    0.5681 H   0  0  0  0  0  0  0  0  0  0  0  0
  1  2  1  0  0  0  0
  2  3  1  0  0  0  0
  2  4  1  0  0  0  0
  4  5  2  0  0  0  0
  5  6  1  0  0  0  0
  6  7  1  0  0  0  0
  7  8  2  0  0  0  0
  7  9  4  0  0  0  0
  9 10  1  0  0  0  0
  2 11  1  0  0  0  0
 11 12  1  0  0  0  0
  1 13  1  0  0  0  0
  1 14  1  0  0  0  0
  1 15  1  0  0  0  0
  3 16  1  0  0  0  0
  3 17  1  0  0  0  0
  3 18  1  0  0  0  0
  4 19  1  0  0  0  0
  9 20  1  0  0  0  0
 10 21  1  0  0  0  0
 10 22  1  0  0  0  0
 10 23  1  0  0  0  0
 12 24  1  0  0  0  0
 12 25  1  0  0  0  0
 12 26  1  0  0  0  0
M  END
