 xtb: 6.7.1 (edcfbbe)
          04112518233D

 26 25  0     0  0            999 V2000
    2.5902    0.0539   -2.0746 C   0  0  0  0  0  0  0  0  0  0  0  0
    1.7471   -0.0556   -0.8062 C   0  0  0  0  0  0  0  0  0  0  0  0
    1.5771   -1.5069   -0.3961 C   0  0  0  0  0  0  0  0  0  0  0  0
    0.5172    0.7730   -0.9377 C   0  0  0  0  0  0  0  0  0  0  0  0
   -0.6540    0.6901   -0.4657 N   0  0  0  0  0  0  0  0  0  0  0  0
   -0.9814   -0.4420    0.3238 O   0  0  0  0  0  0  0  0  0  0  0  0
   -2.2920   -0.5117    0.7148 C   0  0  0  0  0  0  0  0  0  0  0  0
   -2.6004   -1.4568    1.4191 O   0  0  0  0  0  0  0  0  0  0  0  0
   -3.0885    0.4578    0.2859 N   0  0  0  0  0  0  0  0  0  0  0  0
   -4.4936    0.5280    0.6146 C   0  0  0  0  0  0  0  0  0  0  0  0
    2.6851    0.9208    0.4904 S   0  0  0  0  0  0  0  0  0  0  0  0
    1.8222    0.5349    2.0368 C   0  0  0  0  0  0  0  0  0  0  0  0
    2.0628   -0.4039   -2.9080 H   0  0  0  0  0  0  0  0  0  0  0  0
    2.7971    1.0947   -2.3102 H   0  0  0  0  0  0  0  0  0  0  0  0
    3.5370   -0.4592   -1.9304 H   0  0  0  0  0  0  0  0  0  0  0  0
    1.0046   -1.6147    0.5206 H   0  0  0  0  0  0  0  0  0  0  0  0
    2.5555   -1.9621   -0.2592 H   0  0  0  0  0  0  0  0  0  0  0  0
    1.0487   -2.0425   -1.1831 H   0  0  0  0  0  0  0  0  0  0  0  0
    0.6490    1.6895   -1.5012 H   0  0  0  0  0  0  0  0  0  0  0  0
   -2.6747    1.1829   -0.2871 H   0  0  0  0  0  0  0  0  0  0  0  0
   -5.0901    0.5060   -0.2961 H   0  0  0  0  0  0  0  0  0  0  0  0
   -4.7027    1.4432    1.1666 H   0  0  0  0  0  0  0  0  0  0  0  0
   -4.7389   -0.3338    1.2320 H   0  0  0  0  0  0  0  0  0  0  0  0
    0.7517    0.6474    1.9021 H   0  0  0  0  0  0  0  0  0  0  0  0
    2.1812    1.2580    2.7618 H   0  0  0  0  0  0  0  0  0  0  0  0
    2.0685   -0.4721    2.3583 H   0  0  0  0  0  0  0  0  0  0  0  0
  1  2  1  0  0  0  0
  2  3  1  0  0  0  0
  2  4  1  0  0  0  0
  4  5  2  0  0  0  0
  5  6  1  0  0  0  0
  6  7  1  0  0  0  0
  7  8  2  0  0  0  0
  7  9  4  0  0  0  0
  9 10  1  0  0  0  0
  2 11  1  0  0  0  0
 11 12  1  0  0  0  0
  1 13  1  0  0  0  0
  1 14  1  0  0  0  0
  1 15  1  0  0  0  0
  3 16  1  0  0  0  0
  3 17  1  0  0  0  0
  3 18  1  0  0  0  0
  4 19  1  0  0  0  0
  9 20  1  0  0  0  0
 10 21  1  0  0  0  0
 10 22  1  0  0  0  0
 10 23  1  0  0  0  0
 12 24  1  0  0  0  0
 12 25  1  0  0  0  0
 12 26  1  0  0  0  0
M  END
