 xtb: 6.7.1 (edcfbbe)
          04112516133D

 33 34  0     0  0            999 V2000
   -4.8094    0.9650   -0.7258 C   0  0  0  0  0  0  0  0  0  0  0  0
   -3.6605    0.1958   -0.1452 C   0  0  0  0  0  0  0  0  0  0  0  0
   -3.9092   -0.9374    0.6189 C   0  0  0  0  0  0  0  0  0  0  0  0
   -2.8717   -1.6563    1.1842 C   0  0  0  0  0  0  0  0  0  0  0  0
   -1.5672   -1.2451    0.9967 C   0  0  0  0  0  0  0  0  0  0  0  0
   -1.2978   -0.1231    0.2180 C   0  0  0  0  0  0  0  0  0  0  0  0
   -2.3433    0.6039   -0.3651 C   0  0  0  0  0  0  0  0  0  0  0  0
   -2.0361    1.8082   -1.2060 C   0  0  0  0  0  0  0  0  0  0  0  0
    0.0160    0.3412    0.0628 N   0  0  0  0  0  0  0  0  0  0  0  0
    1.1322   -0.4033   -0.1332 C   0  0  0  0  0  0  0  0  0  0  0  0
    1.0271   -1.7413   -0.5574 C   0  0  0  0  0  0  0  0  0  0  0  0
    2.1353   -2.5235   -0.7635 C   0  0  0  0  0  0  0  0  0  0  0  0
    3.4145   -2.0080   -0.5587 C   0  0  0  0  0  0  0  0  0  0  0  0
    3.5475   -0.6966   -0.1788 C   0  0  0  0  0  0  0  0  0  0  0  0
    2.4347    0.1340    0.0289 C   0  0  0  0  0  0  0  0  0  0  0  0
    2.7472    1.5092    0.4065 C   0  0  0  0  0  0  0  0  0  0  0  0
    3.8777    1.9031    0.6622 O   0  0  0  0  0  0  0  0  0  0  0  0
    1.7202    2.3719    0.4550 O   0  0  0  0  0  0  0  0  0  0  0  0
   -4.8063    0.8983   -1.8132 H   0  0  0  0  0  0  0  0  0  0  0  0
   -5.7531    0.5666   -0.3637 H   0  0  0  0  0  0  0  0  0  0  0  0
   -4.7465    2.0160   -0.4515 H   0  0  0  0  0  0  0  0  0  0  0  0
   -4.9288   -1.2553    0.7798 H   0  0  0  0  0  0  0  0  0  0  0  0
   -3.0799   -2.5277    1.7864 H   0  0  0  0  0  0  0  0  0  0  0  0
   -0.7529   -1.7741    1.4679 H   0  0  0  0  0  0  0  0  0  0  0  0
   -2.7712    1.9234   -1.9966 H   0  0  0  0  0  0  0  0  0  0  0  0
   -2.0538    2.7119   -0.5965 H   0  0  0  0  0  0  0  0  0  0  0  0
   -1.0535    1.7194   -1.6624 H   0  0  0  0  0  0  0  0  0  0  0  0
    0.1488    1.3347    0.1858 H   0  0  0  0  0  0  0  0  0  0  0  0
    0.0435   -2.1425   -0.7442 H   0  0  0  0  0  0  0  0  0  0  0  0
    2.0139   -3.5434   -1.0951 H   0  0  0  0  0  0  0  0  0  0  0  0
    4.2852   -2.6246   -0.7119 H   0  0  0  0  0  0  0  0  0  0  0  0
    4.5227   -0.2552   -0.0340 H   0  0  0  0  0  0  0  0  0  0  0  0
    2.0260    3.2632    0.7098 H   0  0  0  0  0  0  0  0  0  0  0  0
  1  2  1  0  0  0  0
  2  3  4  0  0  0  0
  3  4  4  0  0  0  0
  4  5  4  0  0  0  0
  5  6  4  0  0  0  0
  2  7  4  0  0  0  0
  6  7  4  0  0  0  0
  7  8  1  0  0  0  0
  6  9  1  0  0  0  0
  9 10  4  0  0  0  0
 10 11  4  0  0  0  0
 11 12  2  0  0  0  0
 12 13  4  0  0  0  0
 13 14  4  0  0  0  0
 10 15  4  0  0  0  0
 14 15  4  0  0  0  0
 15 16  1  0  0  0  0
 16 17  2  0  0  0  0
 16 18  1  0  0  0  0
  1 19  1  0  0  0  0
  1 20  1  0  0  0  0
  1 21  1  0  0  0  0
  3 22  1  0  0  0  0
  4 23  1  0  0  0  0
  5 24  1  0  0  0  0
  8 25  1  0  0  0  0
  8 26  1  0  0  0  0
  8 27  1  0  0  0  0
  9 28  1  0  0  0  0
 11 29  1  0  0  0  0
 12 30  1  0  0  0  0
 13 31  1  0  0  0  0
 14 32  1  0  0  0  0
 18 33  1  0  0  0  0
M  END
