 xtb: 6.7.1 (edcfbbe)
          04112516113D

 17 16  0     0  0            999 V2000
   -2.3788   -0.9728   -0.5680 C   0  0  0  0  0  0  0  0  0  0  0  0
   -2.2823    0.0880    0.5239 C   0  0  0  0  0  0  0  0  0  0  0  0
   -1.8996    1.4773   -0.0074 C   0  0  0  0  0  0  0  0  0  0  0  0
   -0.4226    1.8529    0.1378 C   0  0  0  0  0  0  0  0  0  0  0  0
    0.5404    1.0561   -0.7271 C   0  0  0  0  0  0  0  0  0  0  0  0
    1.1651   -0.6149    0.1254 Br  0  0  0  0  0  0  0  0  0  0  0  0
   -3.1108   -0.6804   -1.3181 H   0  0  0  0  0  0  0  0  0  0  0  0
   -2.6895   -1.9226   -0.1391 H   0  0  0  0  0  0  0  0  0  0  0  0
   -1.4243   -1.1298   -1.0618 H   0  0  0  0  0  0  0  0  0  0  0  0
   -3.2551    0.1537    1.0153 H   0  0  0  0  0  0  0  0  0  0  0  0
   -1.5628   -0.2316    1.2795 H   0  0  0  0  0  0  0  0  0  0  0  0
   -2.1860    1.5536   -1.0585 H   0  0  0  0  0  0  0  0  0  0  0  0
   -2.4684    2.2319    0.5386 H   0  0  0  0  0  0  0  0  0  0  0  0
   -0.3151    2.8998   -0.1581 H   0  0  0  0  0  0  0  0  0  0  0  0
   -0.1259    1.7788    1.1861 H   0  0  0  0  0  0  0  0  0  0  0  0
    1.4565    1.6133   -0.9145 H   0  0  0  0  0  0  0  0  0  0  0  0
    0.0903    0.7566   -1.6715 H   0  0  0  0  0  0  0  0  0  0  0  0
  1  2  1  0  0  0  0
  2  3  1  0  0  0  0
  3  4  1  0  0  0  0
  4  5  1  0  0  0  0
  5  6  1  0  0  0  0
  1  7  1  0  0  0  0
  1  8  1  0  0  0  0
  1  9  1  0  0  0  0
  2 10  1  0  0  0  0
  2 11  1  0  0  0  0
  3 12  1  0  0  0  0
  3 13  1  0  0  0  0
  4 14  1  0  0  0  0
  4 15  1  0  0  0  0
  5 16  1  0  0  0  0
  5 17  1  0  0  0  0
M  END
