 xtb: 6.7.1 (edcfbbe)
          04112514463D

 23 22  0     0  0            999 V2000
    3.2527   -0.0428   -0.6184 C   0  0  0  0  0  0  0  0  0  0  0  0
    2.1546   -0.2676    0.4145 C   0  0  0  0  0  0  0  0  0  0  0  0
    0.7661   -0.0051   -0.1658 C   0  0  0  0  0  0  0  0  0  0  0  0
   -0.3266   -0.2336    0.8768 C   0  0  0  0  0  0  0  0  0  0  0  0
   -1.7629    0.0073    0.3885 C   0  0  0  0  0  0  0  0  0  0  0  0
   -1.9897    1.4569   -0.0368 C   0  0  0  0  0  0  0  0  0  0  0  0
   -2.1535   -0.9455   -0.7399 C   0  0  0  0  0  0  0  0  0  0  0  0
    3.1168   -0.7071   -1.4691 H   0  0  0  0  0  0  0  0  0  0  0  0
    3.2317    0.9832   -0.9791 H   0  0  0  0  0  0  0  0  0  0  0  0
    4.2313   -0.2349   -0.1853 H   0  0  0  0  0  0  0  0  0  0  0  0
    2.3196    0.3932    1.2688 H   0  0  0  0  0  0  0  0  0  0  0  0
    2.2049   -1.2963    0.7792 H   0  0  0  0  0  0  0  0  0  0  0  0
    0.7246    1.0237   -0.5267 H   0  0  0  0  0  0  0  0  0  0  0  0
    0.6099   -0.6688   -1.0176 H   0  0  0  0  0  0  0  0  0  0  0  0
   -0.2537   -1.2628    1.2385 H   0  0  0  0  0  0  0  0  0  0  0  0
   -0.1379    0.4242    1.7296 H   0  0  0  0  0  0  0  0  0  0  0  0
   -2.4205   -0.1978    1.2426 H   0  0  0  0  0  0  0  0  0  0  0  0
   -3.0446    1.6270   -0.2399 H   0  0  0  0  0  0  0  0  0  0  0  0
   -1.6770    2.1404    0.7492 H   0  0  0  0  0  0  0  0  0  0  0  0
   -1.4311    1.6870   -0.9403 H   0  0  0  0  0  0  0  0  0  0  0  0
   -3.2135   -0.8473   -0.9630 H   0  0  0  0  0  0  0  0  0  0  0  0
   -1.9567   -1.9768   -0.4563 H   0  0  0  0  0  0  0  0  0  0  0  0
   -1.5963   -0.7215   -1.6458 H   0  0  0  0  0  0  0  0  0  0  0  0
  1  2  1  0  0  0  0
  2  3  1  0  0  0  0
  3  4  1  0  0  0  0
  4  5  1  0  0  0  0
  5  6  1  0  0  0  0
  5  7  1  0  0  0  0
  1  8  1  0  0  0  0
  1  9  1  0  0  0  0
  1 10  1  0  0  0  0
  2 11  1  0  0  0  0
  2 12  1  0  0  0  0
  3 13  1  0  0  0  0
  3 14  1  0  0  0  0
  4 15  1  0  0  0  0
  4 16  1  0  0  0  0
  5 17  1  0  0  0  0
  6 18  1  0  0  0  0
  6 19  1  0  0  0  0
  6 20  1  0  0  0  0
  7 21  1  0  0  0  0
  7 22  1  0  0  0  0
  7 23  1  0  0  0  0
M  END
