 xtb: 6.7.1 (edcfbbe)
          04112516213D

 19 18  0     0  0            999 V2000
   -1.6597   -1.2314   -0.5527 C   0  0  0  0  0  0  0  0  0  0  0  0
   -1.5880   -0.2266    0.5924 C   0  0  0  0  0  0  0  0  0  0  0  0
   -1.2087    1.1898    0.1383 C   0  0  0  0  0  0  0  0  0  0  0  0
    0.2733    1.5432    0.2780 C   0  0  0  0  0  0  0  0  0  0  0  0
    1.2162    0.7545   -0.6425 C   0  0  0  0  0  0  0  0  0  0  0  0
    1.5645   -0.5467   -0.1098 C   0  0  0  0  0  0  0  0  0  0  0  0
    1.8831   -1.6052    0.3503 C   0  0  0  0  0  0  0  0  0  0  0  0
   -0.6885   -1.3590   -1.0216 H   0  0  0  0  0  0  0  0  0  0  0  0
   -2.3733   -0.9005   -1.3047 H   0  0  0  0  0  0  0  0  0  0  0  0
   -1.9828   -2.2008   -0.1797 H   0  0  0  0  0  0  0  0  0  0  0  0
   -2.5669   -0.1923    1.0762 H   0  0  0  0  0  0  0  0  0  0  0  0
   -0.8676   -0.5762    1.3340 H   0  0  0  0  0  0  0  0  0  0  0  0
   -1.7667    1.9119    0.7395 H   0  0  0  0  0  0  0  0  0  0  0  0
   -1.5160    1.3293   -0.9007 H   0  0  0  0  0  0  0  0  0  0  0  0
    0.5839    1.4004    1.3157 H   0  0  0  0  0  0  0  0  0  0  0  0
    0.3844    2.6045    0.0425 H   0  0  0  0  0  0  0  0  0  0  0  0
    2.1458    1.3174   -0.7688 H   0  0  0  0  0  0  0  0  0  0  0  0
    0.7588    0.6338   -1.6278 H   0  0  0  0  0  0  0  0  0  0  0  0
    2.1445   -2.5409    0.7450 H   0  0  0  0  0  0  0  0  0  0  0  0
  1  2  1  0  0  0  0
  2  3  1  0  0  0  0
  3  4  1  0  0  0  0
  4  5  1  0  0  0  0
  5  6  1  0  0  0  0
  6  7  3  0  0  0  0
  1  8  1  0  0  0  0
  1  9  1  0  0  0  0
  1 10  1  0  0  0  0
  2 11  1  0  0  0  0
  2 12  1  0  0  0  0
  3 13  1  0  0  0  0
  3 14  1  0  0  0  0
  4 15  1  0  0  0  0
  4 16  1  0  0  0  0
  5 17  1  0  0  0  0
  5 18  1  0  0  0  0
  7 19  1  0  0  0  0
M  END
