 xtb: 6.7.1 (edcfbbe)
          04112516093D

 19 18  0     0  0            999 V2000
    3.0758    0.3151   -0.6348 C   0  0  0  0  0  0  0  0  0  0  0  0
    1.7415    0.7152   -0.0145 C   0  0  0  0  0  0  0  0  0  0  0  0
    0.9548   -0.5115    0.4420 C   0  0  0  0  0  0  0  0  0  0  0  0
   -0.4031   -0.1733    1.0902 C   0  0  0  0  0  0  0  0  0  0  0  0
   -1.5232   -0.1943    0.0790 C   0  0  0  0  0  0  0  0  0  0  0  0
   -2.3176   -1.1160    0.0382 O   0  0  0  0  0  0  0  0  0  0  0  0
   -1.5899    0.9498   -0.8873 C   0  0  0  0  0  0  0  0  0  0  0  0
    3.6317    1.1961   -0.9447 H   0  0  0  0  0  0  0  0  0  0  0  0
    3.6798   -0.2385    0.0803 H   0  0  0  0  0  0  0  0  0  0  0  0
    2.9177   -0.3158   -1.5067 H   0  0  0  0  0  0  0  0  0  0  0  0
    1.1679    1.2859   -0.7442 H   0  0  0  0  0  0  0  0  0  0  0  0
    1.9240    1.3615    0.8465 H   0  0  0  0  0  0  0  0  0  0  0  0
    1.5575   -1.0503    1.1749 H   0  0  0  0  0  0  0  0  0  0  0  0
    0.7948   -1.1867   -0.4020 H   0  0  0  0  0  0  0  0  0  0  0  0
   -0.6367   -0.9222    1.8486 H   0  0  0  0  0  0  0  0  0  0  0  0
   -0.3468    0.8062    1.5639 H   0  0  0  0  0  0  0  0  0  0  0  0
   -0.8331    0.7949   -1.6543 H   0  0  0  0  0  0  0  0  0  0  0  0
   -2.5640    0.9722   -1.3686 H   0  0  0  0  0  0  0  0  0  0  0  0
   -1.3883    1.8925   -0.3895 H   0  0  0  0  0  0  0  0  0  0  0  0
  1  2  1  0  0  0  0
  2  3  1  0  0  0  0
  3  4  1  0  0  0  0
  4  5  1  0  0  0  0
  5  6  2  0  0  0  0
  5  7  1  0  0  0  0
  1  8  1  0  0  0  0
  1  9  1  0  0  0  0
  1 10  1  0  0  0  0
  2 11  1  0  0  0  0
  2 12  1  0  0  0  0
  3 13  1  0  0  0  0
  3 14  1  0  0  0  0
  4 15  1  0  0  0  0
  4 16  1  0  0  0  0
  7 17  1  0  0  0  0
  7 18  1  0  0  0  0
  7 19  1  0  0  0  0
M  END
