 xtb: 6.7.1 (edcfbbe)
          04112516483D

 20 19  0     0  0            999 V2000
    3.1171   -1.4398   -0.4735 C   0  0  0  0  0  0  0  0  0  0  0  0
    2.3279   -0.1697   -0.5108 C   0  0  0  0  0  0  0  0  0  0  0  0
    2.5174    0.7545   -1.2723 O   0  0  0  0  0  0  0  0  0  0  0  0
    1.3776   -0.1557    0.4274 O   0  0  0  0  0  0  0  0  0  0  0  0
    0.5518    1.0040    0.5270 C   0  0  0  0  0  0  0  0  0  0  0  0
   -0.5516    1.0020   -0.5303 C   0  0  0  0  0  0  0  0  0  0  0  0
   -1.3769   -0.1576   -0.4270 O   0  0  0  0  0  0  0  0  0  0  0  0
   -2.3291   -0.1677    0.5096 C   0  0  0  0  0  0  0  0  0  0  0  0
   -2.5194    0.7592    1.2674 O   0  0  0  0  0  0  0  0  0  0  0  0
   -3.1201   -1.4366    0.4728 C   0  0  0  0  0  0  0  0  0  0  0  0
    4.0636   -1.2420    0.0255 H   0  0  0  0  0  0  0  0  0  0  0  0
    3.3321   -1.7635   -1.4874 H   0  0  0  0  0  0  0  0  0  0  0  0
    2.5713   -2.1989    0.0757 H   0  0  0  0  0  0  0  0  0  0  0  0
    0.1225    0.9690    1.5289 H   0  0  0  0  0  0  0  0  0  0  0  0
    1.1617    1.9022    0.3959 H   0  0  0  0  0  0  0  0  0  0  0  0
   -0.1221    0.9639   -1.5321 H   0  0  0  0  0  0  0  0  0  0  0  0
   -1.1618    1.9005   -0.4023 H   0  0  0  0  0  0  0  0  0  0  0  0
   -3.9981   -1.2744   -0.1492 H   0  0  0  0  0  0  0  0  0  0  0  0
   -3.4521   -1.6890    1.4749 H   0  0  0  0  0  0  0  0  0  0  0  0
   -2.5231   -2.2322    0.0404 H   0  0  0  0  0  0  0  0  0  0  0  0
  1  2  1  0  0  0  0
  2  3  2  0  0  0  0
  2  4  1  0  0  0  0
  4  5  1  0  0  0  0
  5  6  1  0  0  0  0
  6  7  1  0  0  0  0
  7  8  1  0  0  0  0
  8  9  2  0  0  0  0
  8 10  1  0  0  0  0
  1 11  1  0  0  0  0
  1 12  1  0  0  0  0
  1 13  1  0  0  0  0
  5 14  1  0  0  0  0
  5 15  1  0  0  0  0
  6 16  1  0  0  0  0
  6 17  1  0  0  0  0
 10 18  1  0  0  0  0
 10 19  1  0  0  0  0
 10 20  1  0  0  0  0
M  END
