 xtb: 6.7.1 (edcfbbe)
          04112516093D

 19 18  0     0  0            999 V2000
    3.3203    0.0414    0.5483 C   0  0  0  0  0  0  0  0  0  0  0  0
    2.1661    0.3967   -0.3815 C   0  0  0  0  0  0  0  0  0  0  0  0
    0.8246   -0.0463    0.1978 C   0  0  0  0  0  0  0  0  0  0  0  0
   -0.3412    0.3156   -0.7354 C   0  0  0  0  0  0  0  0  0  0  0  0
   -1.6307   -0.1797   -0.1301 C   0  0  0  0  0  0  0  0  0  0  0  0
   -2.0452   -1.3054   -0.3321 O   0  0  0  0  0  0  0  0  0  0  0  0
   -2.3437    0.7985    0.7531 C   0  0  0  0  0  0  0  0  0  0  0  0
    4.2667    0.3597    0.1189 H   0  0  0  0  0  0  0  0  0  0  0  0
    3.1983    0.5293    1.5126 H   0  0  0  0  0  0  0  0  0  0  0  0
    3.3607   -1.0331    0.7116 H   0  0  0  0  0  0  0  0  0  0  0  0
    2.3182   -0.0844   -1.3496 H   0  0  0  0  0  0  0  0  0  0  0  0
    2.1498    1.4761   -0.5443 H   0  0  0  0  0  0  0  0  0  0  0  0
    0.6772    0.4293    1.1695 H   0  0  0  0  0  0  0  0  0  0  0  0
    0.8313   -1.1276    0.3535 H   0  0  0  0  0  0  0  0  0  0  0  0
   -0.3755    1.3950   -0.8755 H   0  0  0  0  0  0  0  0  0  0  0  0
   -0.1869   -0.1767   -1.6968 H   0  0  0  0  0  0  0  0  0  0  0  0
   -1.6408    1.2696    1.4341 H   0  0  0  0  0  0  0  0  0  0  0  0
   -2.7753    1.5762    0.1260 H   0  0  0  0  0  0  0  0  0  0  0  0
   -3.1378    0.3058    1.3070 H   0  0  0  0  0  0  0  0  0  0  0  0
  1  2  1  0  0  0  0
  2  3  1  0  0  0  0
  3  4  1  0  0  0  0
  4  5  1  0  0  0  0
  5  6  2  0  0  0  0
  5  7  1  0  0  0  0
  1  8  1  0  0  0  0
  1  9  1  0  0  0  0
  1 10  1  0  0  0  0
  2 11  1  0  0  0  0
  2 12  1  0  0  0  0
  3 13  1  0  0  0  0
  3 14  1  0  0  0  0
  4 15  1  0  0  0  0
  4 16  1  0  0  0  0
  7 17  1  0  0  0  0
  7 18  1  0  0  0  0
  7 19  1  0  0  0  0
M  END
