 xtb: 6.7.1 (edcfbbe)
          04112514233D

 18 17  0     0  0            999 V2000
    2.3483    0.3750   -0.5249 C   0  0  0  0  0  0  0  0  0  0  0  0
    1.2640    0.5297    0.5362 C   0  0  0  0  0  0  0  0  0  0  0  0
    0.4207   -0.7348    0.7161 C   0  0  0  0  0  0  0  0  0  0  0  0
   -0.5396   -0.9992   -0.4429 C   0  0  0  0  0  0  0  0  0  0  0  0
   -1.6812   -0.0375   -0.5839 C   0  0  0  0  0  0  0  0  0  0  0  0
   -2.0998    0.8478    0.3015 C   0  0  0  0  0  0  0  0  0  0  0  0
    2.9552    1.2759   -0.5766 H   0  0  0  0  0  0  0  0  0  0  0  0
    1.9141    0.2053   -1.5068 H   0  0  0  0  0  0  0  0  0  0  0  0
    2.9989   -0.4638   -0.2860 H   0  0  0  0  0  0  0  0  0  0  0  0
    1.7404    0.7697    1.4898 H   0  0  0  0  0  0  0  0  0  0  0  0
    0.6146    1.3648    0.2688 H   0  0  0  0  0  0  0  0  0  0  0  0
    1.0914   -1.5917    0.8140 H   0  0  0  0  0  0  0  0  0  0  0  0
   -0.1506   -0.6626    1.6432 H   0  0  0  0  0  0  0  0  0  0  0  0
    0.0166   -1.0112   -1.3832 H   0  0  0  0  0  0  0  0  0  0  0  0
   -0.9687   -2.0000   -0.3240 H   0  0  0  0  0  0  0  0  0  0  0  0
   -2.2109   -0.1292   -1.5252 H   0  0  0  0  0  0  0  0  0  0  0  0
   -2.9478    1.4813    0.1024 H   0  0  0  0  0  0  0  0  0  0  0  0
   -1.6260    0.9866    1.2579 H   0  0  0  0  0  0  0  0  0  0  0  0
  1  2  1  0  0  0  0
  2  3  1  0  0  0  0
  3  4  1  0  0  0  0
  4  5  1  0  0  0  0
  5  6  2  0  0  0  0
  1  7  1  0  0  0  0
  1  8  1  0  0  0  0
  1  9  1  0  0  0  0
  2 10  1  0  0  0  0
  2 11  1  0  0  0  0
  3 12  1  0  0  0  0
  3 13  1  0  0  0  0
  4 14  1  0  0  0  0
  4 15  1  0  0  0  0
  5 16  1  0  0  0  0
  6 17  1  0  0  0  0
  6 18  1  0  0  0  0
M  END
