 xtb: 6.7.1 (edcfbbe)
          04112514133D

 23 22  0     0  0            999 V2000
    3.1118    0.1247   -0.6542 C   0  0  0  0  0  0  0  0  0  0  0  0
    1.9757    0.2380    0.3557 C   0  0  0  0  0  0  0  0  0  0  0  0
    0.7675   -0.6035   -0.0529 C   0  0  0  0  0  0  0  0  0  0  0  0
   -0.3926   -0.4957    0.9506 C   0  0  0  0  0  0  0  0  0  0  0  0
   -1.7063    0.0555    0.3760 C   0  0  0  0  0  0  0  0  0  0  0  0
   -1.5461    1.4850   -0.1375 C   0  0  0  0  0  0  0  0  0  0  0  0
   -2.2772   -0.8539   -0.7105 C   0  0  0  0  0  0  0  0  0  0  0  0
    3.4365   -0.9094   -0.7474 H   0  0  0  0  0  0  0  0  0  0  0  0
    2.7871    0.4702   -1.6334 H   0  0  0  0  0  0  0  0  0  0  0  0
    3.9628    0.7256   -0.3429 H   0  0  0  0  0  0  0  0  0  0  0  0
    1.6728    1.2836    0.4437 H   0  0  0  0  0  0  0  0  0  0  0  0
    2.3296   -0.0899    1.3360 H   0  0  0  0  0  0  0  0  0  0  0  0
    0.4434   -0.2804   -1.0424 H   0  0  0  0  0  0  0  0  0  0  0  0
    1.0817   -1.6449   -0.1459 H   0  0  0  0  0  0  0  0  0  0  0  0
   -0.5991   -1.4791    1.3777 H   0  0  0  0  0  0  0  0  0  0  0  0
   -0.0890    0.1523    1.7760 H   0  0  0  0  0  0  0  0  0  0  0  0
   -2.4266    0.0775    1.2034 H   0  0  0  0  0  0  0  0  0  0  0  0
   -0.8577    1.5246   -0.9777 H   0  0  0  0  0  0  0  0  0  0  0  0
   -2.5058    1.8762   -0.4677 H   0  0  0  0  0  0  0  0  0  0  0  0
   -1.1649    2.1310    0.6501 H   0  0  0  0  0  0  0  0  0  0  0  0
   -2.4020   -1.8657   -0.3319 H   0  0  0  0  0  0  0  0  0  0  0  0
   -1.6202   -0.8911   -1.5755 H   0  0  0  0  0  0  0  0  0  0  0  0
   -3.2475   -0.4870   -1.0376 H   0  0  0  0  0  0  0  0  0  0  0  0
  1  2  1  0  0  0  0
  2  3  1  0  0  0  0
  3  4  1  0  0  0  0
  4  5  1  0  0  0  0
  5  6  1  0  0  0  0
  5  7  1  0  0  0  0
  1  8  1  0  0  0  0
  1  9  1  0  0  0  0
  1 10  1  0  0  0  0
  2 11  1  0  0  0  0
  2 12  1  0  0  0  0
  3 13  1  0  0  0  0
  3 14  1  0  0  0  0
  4 15  1  0  0  0  0
  4 16  1  0  0  0  0
  5 17  1  0  0  0  0
  6 18  1  0  0  0  0
  6 19  1  0  0  0  0
  6 20  1  0  0  0  0
  7 21  1  0  0  0  0
  7 22  1  0  0  0  0
  7 23  1  0  0  0  0
M  END
