 xtb: 6.7.1 (edcfbbe)
          04112514143D

 16 15  0     0  0            999 V2000
   -2.3700   -0.9643   -0.0322 C   0  0  0  0  0  0  0  0  0  0  0  0
   -1.8596    0.3534   -0.1178 O   0  0  0  0  0  0  0  0  0  0  0  0
   -0.4949    0.4333   -0.4663 C   0  0  0  0  0  0  0  0  0  0  0  0
    0.4468   -0.0064    0.6714 C   0  0  0  0  0  0  0  0  0  0  0  0
    1.7677    0.4614    0.5089 O   0  0  0  0  0  0  0  0  0  0  0  0
    2.4987   -0.1820   -0.5186 C   0  0  0  0  0  0  0  0  0  0  0  0
   -2.1526   -1.5242   -0.9476 H   0  0  0  0  0  0  0  0  0  0  0  0
   -3.4455   -0.8580    0.0859 H   0  0  0  0  0  0  0  0  0  0  0  0
   -1.9595   -1.4996    0.8280 H   0  0  0  0  0  0  0  0  0  0  0  0
   -0.3075   -0.1587   -1.3732 H   0  0  0  0  0  0  0  0  0  0  0  0
   -0.3124    1.4894   -0.6803 H   0  0  0  0  0  0  0  0  0  0  0  0
    0.4493   -1.1012    0.7691 H   0  0  0  0  0  0  0  0  0  0  0  0
    0.0952    0.4387    1.6056 H   0  0  0  0  0  0  0  0  0  0  0  0
    2.4667   -1.2693   -0.3944 H   0  0  0  0  0  0  0  0  0  0  0  0
    3.5228    0.1687   -0.4175 H   0  0  0  0  0  0  0  0  0  0  0  0
    2.1185    0.0825   -1.5088 H   0  0  0  0  0  0  0  0  0  0  0  0
  1  2  1  0  0  0  0
  2  3  1  0  0  0  0
  3  4  1  0  0  0  0
  4  5  1  0  0  0  0
  5  6  1  0  0  0  0
  1  7  1  0  0  0  0
  1  8  1  0  0  0  0
  1  9  1  0  0  0  0
  3 10  1  0  0  0  0
  3 11  1  0  0  0  0
  4 12  1  0  0  0  0
  4 13  1  0  0  0  0
  6 14  1  0  0  0  0
  6 15  1  0  0  0  0
  6 16  1  0  0  0  0
M  END
