 xtb: 6.7.1 (edcfbbe)
          04112514133D

 23 22  0     0  0            999 V2000
    2.5626    0.9645    0.4435 C   0  0  0  0  0  0  0  0  0  0  0  0
    1.9670   -0.0272   -0.5509 C   0  0  0  0  0  0  0  0  0  0  0  0
    1.0588   -1.0704    0.1236 C   0  0  0  0  0  0  0  0  0  0  0  0
   -0.4103   -1.0464   -0.3138 C   0  0  0  0  0  0  0  0  0  0  0  0
   -1.2816    0.0395    0.3363 C   0  0  0  0  0  0  0  0  0  0  0  0
   -1.1390    1.4009   -0.3412 C   0  0  0  0  0  0  0  0  0  0  0  0
   -2.7499   -0.3886    0.2961 C   0  0  0  0  0  0  0  0  0  0  0  0
    1.7790    1.4867    0.9881 H   0  0  0  0  0  0  0  0  0  0  0  0
    3.1903    0.4462    1.1652 H   0  0  0  0  0  0  0  0  0  0  0  0
    3.1733    1.7024   -0.0724 H   0  0  0  0  0  0  0  0  0  0  0  0
    2.7876   -0.5344   -1.0629 H   0  0  0  0  0  0  0  0  0  0  0  0
    1.4060    0.5146   -1.3128 H   0  0  0  0  0  0  0  0  0  0  0  0
    1.4484   -2.0673   -0.0932 H   0  0  0  0  0  0  0  0  0  0  0  0
    1.1020   -0.9428    1.2071 H   0  0  0  0  0  0  0  0  0  0  0  0
   -0.4672   -0.9558   -1.4007 H   0  0  0  0  0  0  0  0  0  0  0  0
   -0.8413   -2.0150   -0.0480 H   0  0  0  0  0  0  0  0  0  0  0  0
   -0.9837    0.1391    1.3864 H   0  0  0  0  0  0  0  0  0  0  0  0
   -1.3919    1.3251   -1.3971 H   0  0  0  0  0  0  0  0  0  0  0  0
   -1.8144    2.1195    0.1188 H   0  0  0  0  0  0  0  0  0  0  0  0
   -0.1287    1.7856   -0.2533 H   0  0  0  0  0  0  0  0  0  0  0  0
   -3.0732   -0.5276   -0.7335 H   0  0  0  0  0  0  0  0  0  0  0  0
   -3.3817    0.3690    0.7542 H   0  0  0  0  0  0  0  0  0  0  0  0
   -2.8956   -1.3240    0.8316 H   0  0  0  0  0  0  0  0  0  0  0  0
  1  2  1  0  0  0  0
  2  3  1  0  0  0  0
  3  4  1  0  0  0  0
  4  5  1  0  0  0  0
  5  6  1  0  0  0  0
  5  7  1  0  0  0  0
  1  8  1  0  0  0  0
  1  9  1  0  0  0  0
  1 10  1  0  0  0  0
  2 11  1  0  0  0  0
  2 12  1  0  0  0  0
  3 13  1  0  0  0  0
  3 14  1  0  0  0  0
  4 15  1  0  0  0  0
  4 16  1  0  0  0  0
  5 17  1  0  0  0  0
  6 18  1  0  0  0  0
  6 19  1  0  0  0  0
  6 20  1  0  0  0  0
  7 21  1  0  0  0  0
  7 22  1  0  0  0  0
  7 23  1  0  0  0  0
M  END
