 xtb: 6.7.1 (edcfbbe)
          04112514343D

 17 16  0     0  0            999 V2000
   -1.8858   -1.4093   -0.4877 C   0  0  0  0  0  0  0  0  0  0  0  0
   -1.5153    0.0586   -0.2922 C   0  0  0  0  0  0  0  0  0  0  0  0
   -2.7550    0.9090   -0.0311 C   0  0  0  0  0  0  0  0  0  0  0  0
   -0.5487    0.2085    0.8878 C   0  0  0  0  0  0  0  0  0  0  0  0
    0.6730   -0.5060    0.6823 O   0  0  0  0  0  0  0  0  0  0  0  0
    1.6298    0.0910   -0.0614 N   0  0  0  0  0  0  0  0  0  0  0  0
    2.6123   -0.5711   -0.2063 O   0  0  0  0  0  0  0  0  0  0  0  0
    1.4179    1.1859   -0.4851 O   0  0  0  0  0  0  0  0  0  0  0  0
   -2.5066   -1.5256   -1.3715 H   0  0  0  0  0  0  0  0  0  0  0  0
   -2.4380   -1.7755    0.3740 H   0  0  0  0  0  0  0  0  0  0  0  0
   -0.9944   -2.0204   -0.6097 H   0  0  0  0  0  0  0  0  0  0  0  0
   -1.0177    0.4292   -1.1951 H   0  0  0  0  0  0  0  0  0  0  0  0
   -2.4883    1.9573    0.0725 H   0  0  0  0  0  0  0  0  0  0  0  0
   -3.2531    0.5835    0.8783 H   0  0  0  0  0  0  0  0  0  0  0  0
   -3.4508    0.8118   -0.8592 H   0  0  0  0  0  0  0  0  0  0  0  0
   -0.3218    1.2630    1.0670 H   0  0  0  0  0  0  0  0  0  0  0  0
   -0.9625   -0.2458    1.7878 H   0  0  0  0  0  0  0  0  0  0  0  0
  1  2  1  0  0  0  0
  2  3  1  0  0  0  0
  2  4  1  0  0  0  0
  4  5  1  0  0  0  0
  5  6  1  0  0  0  0
  6  7  4  0  0  0  0
  6  8  4  0  0  0  0
  1  9  1  0  0  0  0
  1 10  1  0  0  0  0
  1 11  1  0  0  0  0
  2 12  1  0  0  0  0
  3 13  1  0  0  0  0
  3 14  1  0  0  0  0
  3 15  1  0  0  0  0
  4 16  1  0  0  0  0
  4 17  1  0  0  0  0
M  END
