 xtb: 6.7.1 (edcfbbe)
          04112516293D

 20 19  0     0  0            999 V2000
   -3.4220   -0.3234   -0.6901 C   0  0  0  0  0  0  0  0  0  0  0  0
   -2.8328    0.5614    0.4032 C   0  0  0  0  0  0  0  0  0  0  0  0
   -1.4878    0.0563    0.9251 C   0  0  0  0  0  0  0  0  0  0  0  0
   -0.3852    0.1442   -0.1205 C   0  0  0  0  0  0  0  0  0  0  0  0
    0.8533   -0.2156    0.5093 O   0  0  0  0  0  0  0  0  0  0  0  0
    1.9578   -0.1636   -0.2248 C   0  0  0  0  0  0  0  0  0  0  0  0
    1.9594    0.1639   -1.3946 O   0  0  0  0  0  0  0  0  0  0  0  0
    3.1729   -0.5402    0.5673 C   0  0  0  0  0  0  0  0  0  0  0  0
   -4.4141    0.0281   -0.9613 H   0  0  0  0  0  0  0  0  0  0  0  0
   -2.8025   -0.3078   -1.5827 H   0  0  0  0  0  0  0  0  0  0  0  0
   -3.5050   -1.3507   -0.3441 H   0  0  0  0  0  0  0  0  0  0  0  0
   -2.7137    1.5779    0.0235 H   0  0  0  0  0  0  0  0  0  0  0  0
   -3.5299    0.5986    1.2416 H   0  0  0  0  0  0  0  0  0  0  0  0
   -1.1824    0.6548    1.7847 H   0  0  0  0  0  0  0  0  0  0  0  0
   -1.5807   -0.9798    1.2528 H   0  0  0  0  0  0  0  0  0  0  0  0
   -0.5547   -0.5380   -0.9590 H   0  0  0  0  0  0  0  0  0  0  0  0
   -0.2921    1.1598   -0.5209 H   0  0  0  0  0  0  0  0  0  0  0  0
    2.8773   -1.0532    1.4759 H   0  0  0  0  0  0  0  0  0  0  0  0
    3.7132    0.3690    0.8220 H   0  0  0  0  0  0  0  0  0  0  0  0
    3.8241   -1.1601   -0.0415 H   0  0  0  0  0  0  0  0  0  0  0  0
  1  2  1  0  0  0  0
  2  3  1  0  0  0  0
  3  4  1  0  0  0  0
  4  5  1  0  0  0  0
  5  6  1  0  0  0  0
  6  7  2  0  0  0  0
  6  8  1  0  0  0  0
  1  9  1  0  0  0  0
  1 10  1  0  0  0  0
  1 11  1  0  0  0  0
  2 12  1  0  0  0  0
  2 13  1  0  0  0  0
  3 14  1  0  0  0  0
  3 15  1  0  0  0  0
  4 16  1  0  0  0  0
  4 17  1  0  0  0  0
  8 18  1  0  0  0  0
  8 19  1  0  0  0  0
  8 20  1  0  0  0  0
M  END
