 xtb: 6.7.1 (edcfbbe)
          04112514053D

 17 16  0     0  0            999 V2000
    2.3844   -1.2558   -0.2962 C   0  0  0  0  0  0  0  0  0  0  0  0
    2.1802   -0.0538    0.6179 C   0  0  0  0  0  0  0  0  0  0  0  0
    1.4739    1.0967   -0.1123 C   0  0  0  0  0  0  0  0  0  0  0  0
    0.0913    0.7623   -0.5532 C   0  0  0  0  0  0  0  0  0  0  0  0
   -0.8612    0.2344    0.2271 C   0  0  0  0  0  0  0  0  0  0  0  0
   -2.1811   -0.0572   -0.2778 C   0  0  0  0  0  0  0  0  0  0  0  0
   -3.0968   -0.5321    0.3708 O   0  0  0  0  0  0  0  0  0  0  0  0
    1.4265   -1.6453   -0.6344 H   0  0  0  0  0  0  0  0  0  0  0  0
    2.9705   -0.9777   -1.1691 H   0  0  0  0  0  0  0  0  0  0  0  0
    2.9101   -2.0480    0.2308 H   0  0  0  0  0  0  0  0  0  0  0  0
    3.1496    0.3028    0.9691 H   0  0  0  0  0  0  0  0  0  0  0  0
    1.5988   -0.3535    1.4896 H   0  0  0  0  0  0  0  0  0  0  0  0
    2.0725    1.3939   -0.9735 H   0  0  0  0  0  0  0  0  0  0  0  0
    1.4158    1.9514    0.5672 H   0  0  0  0  0  0  0  0  0  0  0  0
   -0.1561    0.9754   -1.5857 H   0  0  0  0  0  0  0  0  0  0  0  0
   -0.6894    0.0046    1.2687 H   0  0  0  0  0  0  0  0  0  0  0  0
   -2.3342    0.1840   -1.3467 H   0  0  0  0  0  0  0  0  0  0  0  0
  1  2  1  0  0  0  0
  2  3  1  0  0  0  0
  3  4  1  0  0  0  0
  4  5  2  0  0  0  0
  5  6  1  0  0  0  0
  6  7  2  0  0  0  0
  1  8  1  0  0  0  0
  1  9  1  0  0  0  0
  1 10  1  0  0  0  0
  2 11  1  0  0  0  0
  2 12  1  0  0  0  0
  3 13  1  0  0  0  0
  3 14  1  0  0  0  0
  4 15  1  0  0  0  0
  5 16  1  0  0  0  0
  6 17  1  0  0  0  0
M  END
