 xtb: 6.7.1 (edcfbbe)
          04112517403D

 33 34  0     0  0            999 V2000
   -4.2680   -0.3116    1.6924 C   0  0  0  0  0  0  0  0  0  0  0  0
   -3.4506   -0.2184    0.4400 C   0  0  0  0  0  0  0  0  0  0  0  0
   -4.0466   -0.4461   -0.7925 C   0  0  0  0  0  0  0  0  0  0  0  0
   -3.3189   -0.3422   -1.9646 C   0  0  0  0  0  0  0  0  0  0  0  0
   -1.9726   -0.0442   -1.9076 C   0  0  0  0  0  0  0  0  0  0  0  0
   -1.3513    0.1585   -0.6786 C   0  0  0  0  0  0  0  0  0  0  0  0
   -2.0923    0.1102    0.5070 C   0  0  0  0  0  0  0  0  0  0  0  0
   -1.4670    0.4363    1.8296 C   0  0  0  0  0  0  0  0  0  0  0  0
    0.0238    0.4630   -0.6789 N   0  0  0  0  0  0  0  0  0  0  0  0
    0.9982   -0.2380   -0.0561 C   0  0  0  0  0  0  0  0  0  0  0  0
    0.7122   -1.4538    0.5929 C   0  0  0  0  0  0  0  0  0  0  0  0
    1.6903   -2.1594    1.2462 C   0  0  0  0  0  0  0  0  0  0  0  0
    3.0041   -1.6908    1.2801 C   0  0  0  0  0  0  0  0  0  0  0  0
    3.3190   -0.5253    0.6275 C   0  0  0  0  0  0  0  0  0  0  0  0
    2.3428    0.2177   -0.0542 C   0  0  0  0  0  0  0  0  0  0  0  0
    2.7375    1.4275   -0.7566 C   0  0  0  0  0  0  0  0  0  0  0  0
    1.9967    2.1282   -1.4456 O   0  0  0  0  0  0  0  0  0  0  0  0
    4.0239    1.7585   -0.6170 O   0  0  0  0  0  0  0  0  0  0  0  0
   -4.3596    0.6669    2.1622 H   0  0  0  0  0  0  0  0  0  0  0  0
   -5.2657   -0.6789    1.4692 H   0  0  0  0  0  0  0  0  0  0  0  0
   -3.7988   -0.9823    2.4093 H   0  0  0  0  0  0  0  0  0  0  0  0
   -5.0963   -0.6963   -0.8358 H   0  0  0  0  0  0  0  0  0  0  0  0
   -3.7976   -0.5032   -2.9184 H   0  0  0  0  0  0  0  0  0  0  0  0
   -1.3844    0.0271   -2.8103 H   0  0  0  0  0  0  0  0  0  0  0  0
   -1.3332   -0.4616    2.4320 H   0  0  0  0  0  0  0  0  0  0  0  0
   -0.4958    0.9044    1.6980 H   0  0  0  0  0  0  0  0  0  0  0  0
   -2.1074    1.1182    2.3849 H   0  0  0  0  0  0  0  0  0  0  0  0
    0.3361    1.2148   -1.2843 H   0  0  0  0  0  0  0  0  0  0  0  0
   -0.2961   -1.8333    0.5455 H   0  0  0  0  0  0  0  0  0  0  0  0
    1.4417   -3.0909    1.7315 H   0  0  0  0  0  0  0  0  0  0  0  0
    3.7667   -2.2473    1.8005 H   0  0  0  0  0  0  0  0  0  0  0  0
    4.3333   -0.1585    0.6216 H   0  0  0  0  0  0  0  0  0  0  0  0
    4.2313    2.5722   -1.1130 H   0  0  0  0  0  0  0  0  0  0  0  0
  1  2  1  0  0  0  0
  2  3  4  0  0  0  0
  3  4  4  0  0  0  0
  4  5  4  0  0  0  0
  5  6  4  0  0  0  0
  2  7  4  0  0  0  0
  6  7  4  0  0  0  0
  7  8  1  0  0  0  0
  6  9  1  0  0  0  0
  9 10  4  0  0  0  0
 10 11  4  0  0  0  0
 11 12  2  0  0  0  0
 12 13  4  0  0  0  0
 13 14  2  0  0  0  0
 10 15  4  0  0  0  0
 14 15  4  0  0  0  0
 15 16  1  0  0  0  0
 16 17  2  0  0  0  0
 16 18  1  0  0  0  0
  1 19  1  0  0  0  0
  1 20  1  0  0  0  0
  1 21  1  0  0  0  0
  3 22  1  0  0  0  0
  4 23  1  0  0  0  0
  5 24  1  0  0  0  0
  8 25  1  0  0  0  0
  8 26  1  0  0  0  0
  8 27  1  0  0  0  0
  9 28  1  0  0  0  0
 11 29  1  0  0  0  0
 12 30  1  0  0  0  0
 13 31  1  0  0  0  0
 14 32  1  0  0  0  0
 18 33  1  0  0  0  0
M  END
