 xtb: 6.7.1 (edcfbbe)
          04112516153D

 26 25  0     0  0            999 V2000
    3.3506   -0.6703   -1.1092 C   0  0  0  0  0  0  0  0  0  0  0  0
    1.9892   -0.5404   -0.4338 C   0  0  0  0  0  0  0  0  0  0  0  0
    1.9141   -1.4310    0.8007 C   0  0  0  0  0  0  0  0  0  0  0  0
    0.8949   -0.8915   -1.3979 C   0  0  0  0  0  0  0  0  0  0  0  0
   -0.3585   -0.7935   -1.2988 N   0  0  0  0  0  0  0  0  0  0  0  0
   -0.8554   -0.2340   -0.1036 O   0  0  0  0  0  0  0  0  0  0  0  0
   -2.2315   -0.2045   -0.0443 C   0  0  0  0  0  0  0  0  0  0  0  0
   -2.9555   -0.7725   -0.8309 O   0  0  0  0  0  0  0  0  0  0  0  0
   -2.6124    0.5072    1.0182 N   0  0  0  0  0  0  0  0  0  0  0  0
   -4.0019    0.7181    1.3603 C   0  0  0  0  0  0  0  0  0  0  0  0
    1.7901    1.2822   -0.0312 S   0  0  0  0  0  0  0  0  0  0  0  0
    1.2947    1.3507    1.7157 C   0  0  0  0  0  0  0  0  0  0  0  0
    4.1368   -0.3930   -0.4118 H   0  0  0  0  0  0  0  0  0  0  0  0
    3.5121   -1.6952   -1.4355 H   0  0  0  0  0  0  0  0  0  0  0  0
    3.4091   -0.0094   -1.9711 H   0  0  0  0  0  0  0  0  0  0  0  0
    0.9345   -1.3853    1.2689 H   0  0  0  0  0  0  0  0  0  0  0  0
    2.6759   -1.1471    1.5214 H   0  0  0  0  0  0  0  0  0  0  0  0
    2.0948   -2.4598    0.4940 H   0  0  0  0  0  0  0  0  0  0  0  0
    1.1908   -1.2954   -2.3572 H   0  0  0  0  0  0  0  0  0  0  0  0
   -1.9096    0.9806    1.5653 H   0  0  0  0  0  0  0  0  0  0  0  0
   -4.2529    1.7755    1.2856 H   0  0  0  0  0  0  0  0  0  0  0  0
   -4.1926    0.3666    2.3731 H   0  0  0  0  0  0  0  0  0  0  0  0
   -4.6081    0.1516    0.6567 H   0  0  0  0  0  0  0  0  0  0  0  0
    2.1086    1.0164    2.3494 H   0  0  0  0  0  0  0  0  0  0  0  0
    0.4025    0.7531    1.8646 H   0  0  0  0  0  0  0  0  0  0  0  0
    1.0851    2.3991    1.9009 H   0  0  0  0  0  0  0  0  0  0  0  0
  1  2  1  0  0  0  0
  2  3  1  0  0  0  0
  2  4  1  0  0  0  0
  4  5  2  0  0  0  0
  5  6  1  0  0  0  0
  6  7  1  0  0  0  0
  7  8  2  0  0  0  0
  7  9  4  0  0  0  0
  9 10  1  0  0  0  0
  2 11  1  0  0  0  0
 11 12  1  0  0  0  0
  1 13  1  0  0  0  0
  1 14  1  0  0  0  0
  1 15  1  0  0  0  0
  3 16  1  0  0  0  0
  3 17  1  0  0  0  0
  3 18  1  0  0  0  0
  4 19  1  0  0  0  0
  9 20  1  0  0  0  0
 10 21  1  0  0  0  0
 10 22  1  0  0  0  0
 10 23  1  0  0  0  0
 12 24  1  0  0  0  0
 12 25  1  0  0  0  0
 12 26  1  0  0  0  0
M  END
