 xtb: 6.7.1 (edcfbbe)
          04112516273D

 20 19  0     0  0            999 V2000
    3.9921   -0.1145    0.2614 C   0  0  0  0  0  0  0  0  0  0  0  0
    2.6151   -0.1626   -0.3192 C   0  0  0  0  0  0  0  0  0  0  0  0
    2.1634   -1.0668   -0.9883 O   0  0  0  0  0  0  0  0  0  0  0  0
    1.9183    0.9386   -0.0210 O   0  0  0  0  0  0  0  0  0  0  0  0
    0.5862    1.0454   -0.5148 C   0  0  0  0  0  0  0  0  0  0  0  0
   -0.3804    0.2604    0.3700 C   0  0  0  0  0  0  0  0  0  0  0  0
   -1.7017    0.5137   -0.1014 O   0  0  0  0  0  0  0  0  0  0  0  0
   -2.6830   -0.2595    0.3696 C   0  0  0  0  0  0  0  0  0  0  0  0
   -2.4894   -1.1518    1.1671 O   0  0  0  0  0  0  0  0  0  0  0  0
   -4.0107    0.1332   -0.1956 C   0  0  0  0  0  0  0  0  0  0  0  0
    4.1421   -0.9874    0.8914 H   0  0  0  0  0  0  0  0  0  0  0  0
    4.1205    0.7972    0.8339 H   0  0  0  0  0  0  0  0  0  0  0  0
    4.7178   -0.1615   -0.5467 H   0  0  0  0  0  0  0  0  0  0  0  0
    0.3441    2.1077   -0.4905 H   0  0  0  0  0  0  0  0  0  0  0  0
    0.5395    0.6630   -1.5389 H   0  0  0  0  0  0  0  0  0  0  0  0
   -0.2965    0.5829    1.4134 H   0  0  0  0  0  0  0  0  0  0  0  0
   -0.1731   -0.8145    0.3188 H   0  0  0  0  0  0  0  0  0  0  0  0
   -4.6481   -0.7421   -0.2703 H   0  0  0  0  0  0  0  0  0  0  0  0
   -3.8756    0.6094   -1.1605 H   0  0  0  0  0  0  0  0  0  0  0  0
   -4.4768    0.8412    0.4867 H   0  0  0  0  0  0  0  0  0  0  0  0
  1  2  1  0  0  0  0
  2  3  2  0  0  0  0
  2  4  1  0  0  0  0
  4  5  1  0  0  0  0
  5  6  1  0  0  0  0
  6  7  1  0  0  0  0
  7  8  1  0  0  0  0
  8  9  2  0  0  0  0
  8 10  1  0  0  0  0
  1 11  1  0  0  0  0
  1 12  1  0  0  0  0
  1 13  1  0  0  0  0
  5 14  1  0  0  0  0
  5 15  1  0  0  0  0
  6 16  1  0  0  0  0
  6 17  1  0  0  0  0
 10 18  1  0  0  0  0
 10 19  1  0  0  0  0
 10 20  1  0  0  0  0
M  END
