 xtb: 6.7.1 (edcfbbe)
          04112516213D

 19 18  0     0  0            999 V2000
   -1.8443   -1.1860   -0.4160 C   0  0  0  0  0  0  0  0  0  0  0  0
   -1.4688   -0.2325    0.7123 C   0  0  0  0  0  0  0  0  0  0  0  0
   -1.1575    1.1825    0.2238 C   0  0  0  0  0  0  0  0  0  0  0  0
    0.0737    1.3027   -0.6754 C   0  0  0  0  0  0  0  0  0  0  0  0
    1.3917    0.9484    0.0291 C   0  0  0  0  0  0  0  0  0  0  0  0
    1.6412   -0.4777    0.0806 C   0  0  0  0  0  0  0  0  0  0  0  0
    1.8690   -1.6532    0.0907 C   0  0  0  0  0  0  0  0  0  0  0  0
   -2.1695   -2.1402   -0.0083 H   0  0  0  0  0  0  0  0  0  0  0  0
   -0.9914   -1.3709   -1.0639 H   0  0  0  0  0  0  0  0  0  0  0  0
   -2.6547   -0.7726   -1.0127 H   0  0  0  0  0  0  0  0  0  0  0  0
   -2.3023   -0.1726    1.4167 H   0  0  0  0  0  0  0  0  0  0  0  0
   -0.6083   -0.6342    1.2494 H   0  0  0  0  0  0  0  0  0  0  0  0
   -1.0179    1.8284    1.0950 H   0  0  0  0  0  0  0  0  0  0  0  0
   -2.0229    1.5596   -0.3277 H   0  0  0  0  0  0  0  0  0  0  0  0
    0.1387    2.3394   -1.0144 H   0  0  0  0  0  0  0  0  0  0  0  0
   -0.0454    0.6745   -1.5593 H   0  0  0  0  0  0  0  0  0  0  0  0
    1.3853    1.3473    1.0471 H   0  0  0  0  0  0  0  0  0  0  0  0
    2.2235    1.4102   -0.5106 H   0  0  0  0  0  0  0  0  0  0  0  0
    2.0531   -2.6852    0.1151 H   0  0  0  0  0  0  0  0  0  0  0  0
  1  2  1  0  0  0  0
  2  3  1  0  0  0  0
  3  4  1  0  0  0  0
  4  5  1  0  0  0  0
  5  6  1  0  0  0  0
  6  7  3  0  0  0  0
  1  8  1  0  0  0  0
  1  9  1  0  0  0  0
  1 10  1  0  0  0  0
  2 11  1  0  0  0  0
  2 12  1  0  0  0  0
  3 13  1  0  0  0  0
  3 14  1  0  0  0  0
  4 15  1  0  0  0  0
  4 16  1  0  0  0  0
  5 17  1  0  0  0  0
  5 18  1  0  0  0  0
  7 19  1  0  0  0  0
M  END
