 xtb: 6.7.1 (edcfbbe)
          04112516273D

 19 18  0     0  0            999 V2000
   -3.1032    0.4300    0.0011 C   0  0  0  0  0  0  0  0  0  0  0  0
   -2.0787   -0.6683    0.2656 C   0  0  0  0  0  0  0  0  0  0  0  0
   -0.7228   -0.3983   -0.3875 C   0  0  0  0  0  0  0  0  0  0  0  0
    0.0091    0.7996    0.2138 C   0  0  0  0  0  0  0  0  0  0  0  0
    1.4195    0.9521   -0.3690 C   0  0  0  0  0  0  0  0  0  0  0  0
    2.2740   -0.1608   -0.0077 C   0  0  0  0  0  0  0  0  0  0  0  0
    2.9666   -1.0843    0.3094 C   0  0  0  0  0  0  0  0  0  0  0  0
   -3.2206    0.5897   -1.0685 H   0  0  0  0  0  0  0  0  0  0  0  0
   -2.7987    1.3670    0.4595 H   0  0  0  0  0  0  0  0  0  0  0  0
   -4.0696    0.1503    0.4139 H   0  0  0  0  0  0  0  0  0  0  0  0
   -1.9415   -0.7855    1.3430 H   0  0  0  0  0  0  0  0  0  0  0  0
   -2.4673   -1.6131   -0.1215 H   0  0  0  0  0  0  0  0  0  0  0  0
   -0.8664   -0.2353   -1.4587 H   0  0  0  0  0  0  0  0  0  0  0  0
   -0.0923   -1.2833   -0.2687 H   0  0  0  0  0  0  0  0  0  0  0  0
    0.0794    0.6741    1.2968 H   0  0  0  0  0  0  0  0  0  0  0  0
   -0.5477    1.7159    0.0126 H   0  0  0  0  0  0  0  0  0  0  0  0
    1.8747    1.8735    0.0038 H   0  0  0  0  0  0  0  0  0  0  0  0
    1.3629    1.0140   -1.4592 H   0  0  0  0  0  0  0  0  0  0  0  0
    3.5808   -1.8902    0.5796 H   0  0  0  0  0  0  0  0  0  0  0  0
  1  2  1  0  0  0  0
  2  3  1  0  0  0  0
  3  4  1  0  0  0  0
  4  5  1  0  0  0  0
  5  6  1  0  0  0  0
  6  7  3  0  0  0  0
  1  8  1  0  0  0  0
  1  9  1  0  0  0  0
  1 10  1  0  0  0  0
  2 11  1  0  0  0  0
  2 12  1  0  0  0  0
  3 13  1  0  0  0  0
  3 14  1  0  0  0  0
  4 15  1  0  0  0  0
  4 16  1  0  0  0  0
  5 17  1  0  0  0  0
  5 18  1  0  0  0  0
  7 19  1  0  0  0  0
M  END
