 xtb: 6.7.1 (edcfbbe)
          04112516113D

 20 19  0     0  0            999 V2000
    2.1858   -1.6879   -0.2348 C   0  0  0  0  0  0  0  0  0  0  0  0
    1.8497   -0.2548    0.0242 C   0  0  0  0  0  0  0  0  0  0  0  0
    2.2408    0.4042    0.9631 O   0  0  0  0  0  0  0  0  0  0  0  0
    1.0428    0.2369   -0.9200 O   0  0  0  0  0  0  0  0  0  0  0  0
    0.5414    1.5651   -0.7462 C   0  0  0  0  0  0  0  0  0  0  0  0
   -0.5836    1.5992    0.2884 C   0  0  0  0  0  0  0  0  0  0  0  0
   -1.6909    0.8085   -0.1456 O   0  0  0  0  0  0  0  0  0  0  0  0
   -1.7361   -0.4786    0.2009 C   0  0  0  0  0  0  0  0  0  0  0  0
   -0.9032   -1.0141    0.9018 O   0  0  0  0  0  0  0  0  0  0  0  0
   -2.9507   -1.1477   -0.3618 C   0  0  0  0  0  0  0  0  0  0  0  0
    1.4039   -2.2868    0.2316 H   0  0  0  0  0  0  0  0  0  0  0  0
    3.1384   -1.9338    0.2224 H   0  0  0  0  0  0  0  0  0  0  0  0
    2.1893   -1.8847   -1.3015 H   0  0  0  0  0  0  0  0  0  0  0  0
    1.3504    2.2216   -0.4145 H   0  0  0  0  0  0  0  0  0  0  0  0
    0.1717    1.8547   -1.7296 H   0  0  0  0  0  0  0  0  0  0  0  0
   -0.9623    2.6151    0.3934 H   0  0  0  0  0  0  0  0  0  0  0  0
   -0.2176    1.2200    1.2481 H   0  0  0  0  0  0  0  0  0  0  0  0
   -3.1345   -0.7881   -1.3689 H   0  0  0  0  0  0  0  0  0  0  0  0
   -3.8055   -0.8852    0.2578 H   0  0  0  0  0  0  0  0  0  0  0  0
   -2.8163   -2.2242   -0.3460 H   0  0  0  0  0  0  0  0  0  0  0  0
  1  2  1  0  0  0  0
  2  3  2  0  0  0  0
  2  4  1  0  0  0  0
  4  5  1  0  0  0  0
  5  6  1  0  0  0  0
  6  7  1  0  0  0  0
  7  8  1  0  0  0  0
  8  9  2  0  0  0  0
  8 10  1  0  0  0  0
  1 11  1  0  0  0  0
  1 12  1  0  0  0  0
  1 13  1  0  0  0  0
  5 14  1  0  0  0  0
  5 15  1  0  0  0  0
  6 16  1  0  0  0  0
  6 17  1  0  0  0  0
 10 18  1  0  0  0  0
 10 19  1  0  0  0  0
 10 20  1  0  0  0  0
M  END
