 xtb: 6.7.1 (edcfbbe)
          04112516263D

 20 19  0     0  0            999 V2000
   -3.5948   -1.0315    0.4426 C   0  0  0  0  0  0  0  0  0  0  0  0
   -2.6723    0.1167    0.0511 C   0  0  0  0  0  0  0  0  0  0  0  0
   -1.1993   -0.2850    0.1181 C   0  0  0  0  0  0  0  0  0  0  0  0
   -0.3008    0.8789   -0.2891 C   0  0  0  0  0  0  0  0  0  0  0  0
    1.1767    0.5872   -0.2757 C   0  0  0  0  0  0  0  0  0  0  0  0
    2.0177    1.3867   -0.6402 O   0  0  0  0  0  0  0  0  0  0  0  0
    1.4701   -0.6202    0.1828 O   0  0  0  0  0  0  0  0  0  0  0  0
    2.8452   -1.0096    0.2499 C   0  0  0  0  0  0  0  0  0  0  0  0
   -4.6344   -0.7190    0.3850 H   0  0  0  0  0  0  0  0  0  0  0  0
   -3.4535   -1.8791   -0.2237 H   0  0  0  0  0  0  0  0  0  0  0  0
   -3.3895   -1.3572    1.4595 H   0  0  0  0  0  0  0  0  0  0  0  0
   -2.9107    0.4412   -0.9640 H   0  0  0  0  0  0  0  0  0  0  0  0
   -2.8453    0.9632    0.7187 H   0  0  0  0  0  0  0  0  0  0  0  0
   -1.0207   -1.1333   -0.5446 H   0  0  0  0  0  0  0  0  0  0  0  0
   -0.9510   -0.6016    1.1321 H   0  0  0  0  0  0  0  0  0  0  0  0
   -0.4580    1.7322    0.3758 H   0  0  0  0  0  0  0  0  0  0  0  0
   -0.5468    1.2206   -1.2974 H   0  0  0  0  0  0  0  0  0  0  0  0
    3.0967   -1.5790   -0.6447 H   0  0  0  0  0  0  0  0  0  0  0  0
    2.9474   -1.6286    1.1369 H   0  0  0  0  0  0  0  0  0  0  0  0
    3.4804   -0.1249    0.3116 H   0  0  0  0  0  0  0  0  0  0  0  0
  1  2  1  0  0  0  0
  2  3  1  0  0  0  0
  3  4  1  0  0  0  0
  4  5  1  0  0  0  0
  5  6  2  0  0  0  0
  5  7  1  0  0  0  0
  7  8  1  0  0  0  0
  1  9  1  0  0  0  0
  1 10  1  0  0  0  0
  1 11  1  0  0  0  0
  2 12  1  0  0  0  0
  2 13  1  0  0  0  0
  3 14  1  0  0  0  0
  3 15  1  0  0  0  0
  4 16  1  0  0  0  0
  4 17  1  0  0  0  0
  8 18  1  0  0  0  0
  8 19  1  0  0  0  0
  8 20  1  0  0  0  0
M  END
