 xtb: 6.7.1 (edcfbbe)
          04112516153D

 26 25  0     0  0            999 V2000
    1.3691    0.4362   -1.5159 C   0  0  0  0  0  0  0  0  0  0  0  0
    1.7087   -0.3016   -0.2281 C   0  0  0  0  0  0  0  0  0  0  0  0
    2.0389   -1.7718   -0.5072 C   0  0  0  0  0  0  0  0  0  0  0  0
    0.6510   -0.2685    0.8291 C   0  0  0  0  0  0  0  0  0  0  0  0
   -0.6085   -0.2447    0.7621 N   0  0  0  0  0  0  0  0  0  0  0  0
   -1.1982   -0.2201   -0.5185 O   0  0  0  0  0  0  0  0  0  0  0  0
   -2.5706   -0.2080   -0.5262 C   0  0  0  0  0  0  0  0  0  0  0  0
   -3.1080   -0.1827   -1.6183 O   0  0  0  0  0  0  0  0  0  0  0  0
   -3.1673   -0.2263    0.6575 N   0  0  0  0  0  0  0  0  0  0  0  0
   -4.6034   -0.2234    0.8170 C   0  0  0  0  0  0  0  0  0  0  0  0
    3.2455    0.4259    0.5264 S   0  0  0  0  0  0  0  0  0  0  0  0
    2.7375    2.1470    0.8116 C   0  0  0  0  0  0  0  0  0  0  0  0
    0.6023   -0.1009   -2.0695 H   0  0  0  0  0  0  0  0  0  0  0  0
    0.9944    1.4369   -1.3109 H   0  0  0  0  0  0  0  0  0  0  0  0
    2.2607    0.5110   -2.1347 H   0  0  0  0  0  0  0  0  0  0  0  0
    2.3354   -2.2773    0.4088 H   0  0  0  0  0  0  0  0  0  0  0  0
    2.8587   -1.8297   -1.2183 H   0  0  0  0  0  0  0  0  0  0  0  0
    1.1673   -2.2699   -0.9270 H   0  0  0  0  0  0  0  0  0  0  0  0
    1.0060   -0.3160    1.8522 H   0  0  0  0  0  0  0  0  0  0  0  0
   -2.5780   -0.2516    1.4803 H   0  0  0  0  0  0  0  0  0  0  0  0
   -4.9134    0.6533    1.3838 H   0  0  0  0  0  0  0  0  0  0  0  0
   -4.9227   -1.1259    1.3360 H   0  0  0  0  0  0  0  0  0  0  0  0
   -5.0532   -0.1947   -0.1735 H   0  0  0  0  0  0  0  0  0  0  0  0
    3.4991    2.5782    1.4521 H   0  0  0  0  0  0  0  0  0  0  0  0
    1.7739    2.1639    1.3109 H   0  0  0  0  0  0  0  0  0  0  0  0
    2.6997    2.6822   -0.1319 H   0  0  0  0  0  0  0  0  0  0  0  0
  1  2  1  0  0  0  0
  2  3  1  0  0  0  0
  2  4  1  0  0  0  0
  4  5  2  0  0  0  0
  5  6  1  0  0  0  0
  6  7  1  0  0  0  0
  7  8  2  0  0  0  0
  7  9  4  0  0  0  0
  9 10  1  0  0  0  0
  2 11  1  0  0  0  0
 11 12  1  0  0  0  0
  1 13  1  0  0  0  0
  1 14  1  0  0  0  0
  1 15  1  0  0  0  0
  3 16  1  0  0  0  0
  3 17  1  0  0  0  0
  3 18  1  0  0  0  0
  4 19  1  0  0  0  0
  9 20  1  0  0  0  0
 10 21  1  0  0  0  0
 10 22  1  0  0  0  0
 10 23  1  0  0  0  0
 12 24  1  0  0  0  0
 12 25  1  0  0  0  0
 12 26  1  0  0  0  0
M  END
