 xtb: 6.7.1 (edcfbbe)
          04112514053D

 17 16  0     0  0            999 V2000
   -1.3704   -0.8823   -1.1399 C   0  0  0  0  0  0  0  0  0  0  0  0
   -1.7351    0.1630   -0.0879 C   0  0  0  0  0  0  0  0  0  0  0  0
   -2.9490   -0.2802    0.7239 C   0  0  0  0  0  0  0  0  0  0  0  0
   -0.5649    0.4073    0.8717 C   0  0  0  0  0  0  0  0  0  0  0  0
    0.5725    0.9311    0.1811 O   0  0  0  0  0  0  0  0  0  0  0  0
    1.6056    0.1028   -0.0977 N   0  0  0  0  0  0  0  0  0  0  0  0
    1.5704   -1.0187    0.3046 O   0  0  0  0  0  0  0  0  0  0  0  0
    2.4709    0.6217   -0.7354 O   0  0  0  0  0  0  0  0  0  0  0  0
   -1.0541   -1.8100   -0.6671 H   0  0  0  0  0  0  0  0  0  0  0  0
   -0.5661   -0.5288   -1.7831 H   0  0  0  0  0  0  0  0  0  0  0  0
   -2.2301   -1.0918   -1.7700 H   0  0  0  0  0  0  0  0  0  0  0  0
   -1.9603    1.1074   -0.5921 H   0  0  0  0  0  0  0  0  0  0  0  0
   -3.2083    0.4665    1.4691 H   0  0  0  0  0  0  0  0  0  0  0  0
   -2.7428   -1.2202    1.2293 H   0  0  0  0  0  0  0  0  0  0  0  0
   -3.8020   -0.4226    0.0674 H   0  0  0  0  0  0  0  0  0  0  0  0
   -0.8214    1.1704    1.6074 H   0  0  0  0  0  0  0  0  0  0  0  0
   -0.2834   -0.5193    1.3793 H   0  0  0  0  0  0  0  0  0  0  0  0
  1  2  1  0  0  0  0
  2  3  1  0  0  0  0
  2  4  1  0  0  0  0
  4  5  1  0  0  0  0
  5  6  1  0  0  0  0
  6  7  4  0  0  0  0
  6  8  4  0  0  0  0
  1  9  1  0  0  0  0
  1 10  1  0  0  0  0
  1 11  1  0  0  0  0
  2 12  1  0  0  0  0
  3 13  1  0  0  0  0
  3 14  1  0  0  0  0
  3 15  1  0  0  0  0
  4 16  1  0  0  0  0
  4 17  1  0  0  0  0
M  END
