 xtb: 6.7.1 (edcfbbe)
          04112514483D

 18 17  0     0  0            999 V2000
    2.8599    0.6036   -0.0031 C   0  0  0  0  0  0  0  0  0  0  0  0
    1.7627   -0.4489    0.1057 C   0  0  0  0  0  0  0  0  0  0  0  0
    0.3707    0.1685   -0.0128 C   0  0  0  0  0  0  0  0  0  0  0  0
   -0.7238   -0.8886    0.0965 C   0  0  0  0  0  0  0  0  0  0  0  0
   -2.1260   -0.3729   -0.0083 C   0  0  0  0  0  0  0  0  0  0  0  0
   -2.5001    0.8812   -0.1804 C   0  0  0  0  0  0  0  0  0  0  0  0
    3.8414    0.1440    0.0839 H   0  0  0  0  0  0  0  0  0  0  0  0
    2.7559    1.3448    0.7862 H   0  0  0  0  0  0  0  0  0  0  0  0
    2.8032    1.1148   -0.9616 H   0  0  0  0  0  0  0  0  0  0  0  0
    1.8961   -1.1935   -0.6825 H   0  0  0  0  0  0  0  0  0  0  0  0
    1.8490   -0.9637    1.0655 H   0  0  0  0  0  0  0  0  0  0  0  0
    0.2395    0.9103    0.7778 H   0  0  0  0  0  0  0  0  0  0  0  0
    0.2865    0.6803   -0.9739 H   0  0  0  0  0  0  0  0  0  0  0  0
   -0.5797   -1.6401   -0.6866 H   0  0  0  0  0  0  0  0  0  0  0  0
   -0.6259   -1.4122    1.0532 H   0  0  0  0  0  0  0  0  0  0  0  0
   -2.8822   -1.1452    0.0712 H   0  0  0  0  0  0  0  0  0  0  0  0
   -3.5403    1.1527   -0.2430 H   0  0  0  0  0  0  0  0  0  0  0  0
   -1.7966    1.6909   -0.2655 H   0  0  0  0  0  0  0  0  0  0  0  0
  1  2  1  0  0  0  0
  2  3  1  0  0  0  0
  3  4  1  0  0  0  0
  4  5  1  0  0  0  0
  5  6  2  0  0  0  0
  1  7  1  0  0  0  0
  1  8  1  0  0  0  0
  1  9  1  0  0  0  0
  2 10  1  0  0  0  0
  2 11  1  0  0  0  0
  3 12  1  0  0  0  0
  3 13  1  0  0  0  0
  4 14  1  0  0  0  0
  4 15  1  0  0  0  0
  5 16  1  0  0  0  0
  6 17  1  0  0  0  0
  6 18  1  0  0  0  0
M  END
