 xtb: 6.7.1 (edcfbbe)
          04112516113D

 17 16  0     0  0            999 V2000
   -1.8705   -0.9826   -0.1231 C   0  0  0  0  0  0  0  0  0  0  0  0
   -2.0212    0.4949    0.2171 C   0  0  0  0  0  0  0  0  0  0  0  0
   -0.8249    1.3405   -0.2184 C   0  0  0  0  0  0  0  0  0  0  0  0
    0.4581    1.0154    0.5548 C   0  0  0  0  0  0  0  0  0  0  0  0
    1.1574   -0.2352    0.0975 C   0  0  0  0  0  0  0  0  0  0  0  0
    1.6158   -1.0762    0.8462 O   0  0  0  0  0  0  0  0  0  0  0  0
    1.2839   -0.3173   -1.2167 O   0  0  0  0  0  0  0  0  0  0  0  0
   -1.7025   -1.1117   -1.1899 H   0  0  0  0  0  0  0  0  0  0  0  0
   -1.0344   -1.4232    0.4161 H   0  0  0  0  0  0  0  0  0  0  0  0
   -2.7703   -1.5276    0.1519 H   0  0  0  0  0  0  0  0  0  0  0  0
   -2.1669    0.6046    1.2939 H   0  0  0  0  0  0  0  0  0  0  0  0
   -2.9134    0.8818   -0.2795 H   0  0  0  0  0  0  0  0  0  0  0  0
   -0.6439    1.2027   -1.2850 H   0  0  0  0  0  0  0  0  0  0  0  0
   -1.0646    2.3909   -0.0480 H   0  0  0  0  0  0  0  0  0  0  0  0
    0.2601    0.9254    1.6233 H   0  0  0  0  0  0  0  0  0  0  0  0
    1.1755    1.8257    0.4038 H   0  0  0  0  0  0  0  0  0  0  0  0
    1.7841   -1.1077   -1.4957 H   0  0  0  0  0  0  0  0  0  0  0  0
  1  2  1  0  0  0  0
  2  3  1  0  0  0  0
  3  4  1  0  0  0  0
  4  5  1  0  0  0  0
  5  6  2  0  0  0  0
  5  7  1  0  0  0  0
  1  8  1  0  0  0  0
  1  9  1  0  0  0  0
  1 10  1  0  0  0  0
  2 11  1  0  0  0  0
  2 12  1  0  0  0  0
  3 13  1  0  0  0  0
  3 14  1  0  0  0  0
  4 15  1  0  0  0  0
  4 16  1  0  0  0  0
  7 17  1  0  0  0  0
M  END
