 xtb: 6.7.1 (edcfbbe)
          04112514233D

 18 17  0     0  0            999 V2000
    2.8593    0.6040   -0.0027 C   0  0  0  0  0  0  0  0  0  0  0  0
    1.7627   -0.4492    0.1056 C   0  0  0  0  0  0  0  0  0  0  0  0
    0.3707    0.1680   -0.0136 C   0  0  0  0  0  0  0  0  0  0  0  0
   -0.7238   -0.8890    0.0961 C   0  0  0  0  0  0  0  0  0  0  0  0
   -2.1259   -0.3727   -0.0075 C   0  0  0  0  0  0  0  0  0  0  0  0
   -2.4994    0.8816   -0.1800 C   0  0  0  0  0  0  0  0  0  0  0  0
    3.8409    0.1451    0.0860 H   0  0  0  0  0  0  0  0  0  0  0  0
    2.7538    1.3457    0.7859 H   0  0  0  0  0  0  0  0  0  0  0  0
    2.8036    1.1144   -0.9616 H   0  0  0  0  0  0  0  0  0  0  0  0
    1.8967   -1.1938   -0.6826 H   0  0  0  0  0  0  0  0  0  0  0  0
    1.8488   -0.9640    1.0653 H   0  0  0  0  0  0  0  0  0  0  0  0
    0.2393    0.9101    0.7768 H   0  0  0  0  0  0  0  0  0  0  0  0
    0.2867    0.6794   -0.9748 H   0  0  0  0  0  0  0  0  0  0  0  0
   -0.5804   -1.6403   -0.6873 H   0  0  0  0  0  0  0  0  0  0  0  0
   -0.6255   -1.4128    1.0525 H   0  0  0  0  0  0  0  0  0  0  0  0
   -2.8823   -1.1447    0.0729 H   0  0  0  0  0  0  0  0  0  0  0  0
   -3.5395    1.1536   -0.2423 H   0  0  0  0  0  0  0  0  0  0  0  0
   -1.7954    1.6907   -0.2666 H   0  0  0  0  0  0  0  0  0  0  0  0
  1  2  1  0  0  0  0
  2  3  1  0  0  0  0
  3  4  1  0  0  0  0
  4  5  1  0  0  0  0
  5  6  2  0  0  0  0
  1  7  1  0  0  0  0
  1  8  1  0  0  0  0
  1  9  1  0  0  0  0
  2 10  1  0  0  0  0
  2 11  1  0  0  0  0
  3 12  1  0  0  0  0
  3 13  1  0  0  0  0
  4 14  1  0  0  0  0
  4 15  1  0  0  0  0
  5 16  1  0  0  0  0
  6 17  1  0  0  0  0
  6 18  1  0  0  0  0
M  END
