 xtb: 6.7.1 (edcfbbe)
          04112516253D

 17 16  0     0  0            999 V2000
   -3.0335   -0.3386   -0.2526 C   0  0  0  0  0  0  0  0  0  0  0  0
   -1.6494   -0.2455    0.3785 C   0  0  0  0  0  0  0  0  0  0  0  0
   -0.8652    0.9481   -0.1628 C   0  0  0  0  0  0  0  0  0  0  0  0
    0.5285    1.0544    0.4688 C   0  0  0  0  0  0  0  0  0  0  0  0
    1.3866   -0.1225    0.0923 C   0  0  0  0  0  0  0  0  0  0  0  0
    1.8477   -0.9251    0.8775 O   0  0  0  0  0  0  0  0  0  0  0  0
    1.6015   -0.2026   -1.2109 O   0  0  0  0  0  0  0  0  0  0  0  0
   -2.9532   -0.4537   -1.3310 H   0  0  0  0  0  0  0  0  0  0  0  0
   -3.5770   -1.1917    0.1451 H   0  0  0  0  0  0  0  0  0  0  0  0
   -3.6060    0.5621   -0.0449 H   0  0  0  0  0  0  0  0  0  0  0  0
   -1.0944   -1.1665    0.1819 H   0  0  0  0  0  0  0  0  0  0  0  0
   -1.7478   -0.1512    1.4621 H   0  0  0  0  0  0  0  0  0  0  0  0
   -0.7591    0.8569   -1.2450 H   0  0  0  0  0  0  0  0  0  0  0  0
   -1.4146    1.8661    0.0497 H   0  0  0  0  0  0  0  0  0  0  0  0
    0.4571    1.0954    1.5555 H   0  0  0  0  0  0  0  0  0  0  0  0
    1.0218    1.9548    0.1007 H   0  0  0  0  0  0  0  0  0  0  0  0
    2.1554   -0.9682   -1.4569 H   0  0  0  0  0  0  0  0  0  0  0  0
  1  2  1  0  0  0  0
  2  3  1  0  0  0  0
  3  4  1  0  0  0  0
  4  5  1  0  0  0  0
  5  6  2  0  0  0  0
  5  7  1  0  0  0  0
  1  8  1  0  0  0  0
  1  9  1  0  0  0  0
  1 10  1  0  0  0  0
  2 11  1  0  0  0  0
  2 12  1  0  0  0  0
  3 13  1  0  0  0  0
  3 14  1  0  0  0  0
  4 15  1  0  0  0  0
  4 16  1  0  0  0  0
  7 17  1  0  0  0  0
M  END
