 xtb: 6.7.1 (edcfbbe)
          04112516293D

 20 19  0     0  0            999 V2000
   -2.2924   -1.3058    0.2752 C   0  0  0  0  0  0  0  0  0  0  0  0
   -2.6359    0.1760    0.3664 C   0  0  0  0  0  0  0  0  0  0  0  0
   -1.6959    1.0639   -0.4506 C   0  0  0  0  0  0  0  0  0  0  0  0
   -0.2705    1.1090    0.0850 C   0  0  0  0  0  0  0  0  0  0  0  0
    0.4367   -0.0679   -0.3331 O   0  0  0  0  0  0  0  0  0  0  0  0
    1.7324   -0.1382   -0.0631 C   0  0  0  0  0  0  0  0  0  0  0  0
    2.3369    0.7415    0.5184 O   0  0  0  0  0  0  0  0  0  0  0  0
    2.3356   -1.4225   -0.5472 C   0  0  0  0  0  0  0  0  0  0  0  0
   -2.3098   -1.6356   -0.7606 H   0  0  0  0  0  0  0  0  0  0  0  0
   -1.3016   -1.4988    0.6765 H   0  0  0  0  0  0  0  0  0  0  0  0
   -3.0128   -1.8947    0.8379 H   0  0  0  0  0  0  0  0  0  0  0  0
   -3.6528    0.3280   -0.0002 H   0  0  0  0  0  0  0  0  0  0  0  0
   -2.6095    0.4932    1.4111 H   0  0  0  0  0  0  0  0  0  0  0  0
   -1.6632    0.7140   -1.4831 H   0  0  0  0  0  0  0  0  0  0  0  0
   -2.0800    2.0843   -0.4457 H   0  0  0  0  0  0  0  0  0  0  0  0
    0.2700    1.9805   -0.3002 H   0  0  0  0  0  0  0  0  0  0  0  0
   -0.2521    1.1581    1.1790 H   0  0  0  0  0  0  0  0  0  0  0  0
    1.7004   -1.8678   -1.3051 H   0  0  0  0  0  0  0  0  0  0  0  0
    2.4211   -2.1030    0.2974 H   0  0  0  0  0  0  0  0  0  0  0  0
    3.3333   -1.2321   -0.9308 H   0  0  0  0  0  0  0  0  0  0  0  0
  1  2  1  0  0  0  0
  2  3  1  0  0  0  0
  3  4  1  0  0  0  0
  4  5  1  0  0  0  0
  5  6  1  0  0  0  0
  6  7  2  0  0  0  0
  6  8  1  0  0  0  0
  1  9  1  0  0  0  0
  1 10  1  0  0  0  0
  1 11  1  0  0  0  0
  2 12  1  0  0  0  0
  2 13  1  0  0  0  0
  3 14  1  0  0  0  0
  3 15  1  0  0  0  0
  4 16  1  0  0  0  0
  4 17  1  0  0  0  0
  8 18  1  0  0  0  0
  8 19  1  0  0  0  0
  8 20  1  0  0  0  0
M  END
