 xtb: 6.7.1 (edcfbbe)
          04112514233D

 18 17  0     0  0            999 V2000
    1.9178    1.0905   -0.0526 C   0  0  0  0  0  0  0  0  0  0  0  0
    1.8845   -0.4336   -0.0470 C   0  0  0  0  0  0  0  0  0  0  0  0
    0.5697   -0.9855    0.5055 C   0  0  0  0  0  0  0  0  0  0  0  0
   -0.6216   -0.7700   -0.4517 C   0  0  0  0  0  0  0  0  0  0  0  0
   -1.7563   -0.0683    0.2236 C   0  0  0  0  0  0  0  0  0  0  0  0
   -2.2612    1.0885   -0.1624 C   0  0  0  0  0  0  0  0  0  0  0  0
    1.1022    1.4957   -0.6458 H   0  0  0  0  0  0  0  0  0  0  0  0
    2.8562    1.4497   -0.4683 H   0  0  0  0  0  0  0  0  0  0  0  0
    1.8207    1.4737    0.9608 H   0  0  0  0  0  0  0  0  0  0  0  0
    2.0381   -0.8099   -1.0607 H   0  0  0  0  0  0  0  0  0  0  0  0
    2.7075   -0.8021    0.5697 H   0  0  0  0  0  0  0  0  0  0  0  0
    0.6912   -2.0511    0.7071 H   0  0  0  0  0  0  0  0  0  0  0  0
    0.3629   -0.4951    1.4594 H   0  0  0  0  0  0  0  0  0  0  0  0
   -0.3056   -0.1908   -1.3199 H   0  0  0  0  0  0  0  0  0  0  0  0
   -0.9762   -1.7378   -0.8142 H   0  0  0  0  0  0  0  0  0  0  0  0
   -2.1563   -0.5717    1.0949 H   0  0  0  0  0  0  0  0  0  0  0  0
   -3.0755    1.5618    0.3592 H   0  0  0  0  0  0  0  0  0  0  0  0
   -1.8820    1.6116   -1.0255 H   0  0  0  0  0  0  0  0  0  0  0  0
  1  2  1  0  0  0  0
  2  3  1  0  0  0  0
  3  4  1  0  0  0  0
  4  5  1  0  0  0  0
  5  6  2  0  0  0  0
  1  7  1  0  0  0  0
  1  8  1  0  0  0  0
  1  9  1  0  0  0  0
  2 10  1  0  0  0  0
  2 11  1  0  0  0  0
  3 12  1  0  0  0  0
  3 13  1  0  0  0  0
  4 14  1  0  0  0  0
  4 15  1  0  0  0  0
  5 16  1  0  0  0  0
  6 17  1  0  0  0  0
  6 18  1  0  0  0  0
M  END
