 xtb: 6.7.1 (edcfbbe)
          04112516013D

 20 19  0     0  0            999 V2000
   -1.8463   -1.1138   -0.6616 C   0  0  0  0  0  0  0  0  0  0  0  0
   -2.4479    0.1961   -0.1647 C   0  0  0  0  0  0  0  0  0  0  0  0
   -1.6460    0.8459    0.9641 C   0  0  0  0  0  0  0  0  0  0  0  0
   -0.2259    1.2465    0.5704 C   0  0  0  0  0  0  0  0  0  0  0  0
    0.6674    0.1362    0.7466 O   0  0  0  0  0  0  0  0  0  0  0  0
    1.4947   -0.2048   -0.2301 C   0  0  0  0  0  0  0  0  0  0  0  0
    1.5651    0.3803   -1.2933 O   0  0  0  0  0  0  0  0  0  0  0  0
    2.3135   -1.4061    0.1386 C   0  0  0  0  0  0  0  0  0  0  0  0
   -1.6659   -1.7913    0.1698 H   0  0  0  0  0  0  0  0  0  0  0  0
   -2.5238   -1.5973   -1.3613 H   0  0  0  0  0  0  0  0  0  0  0  0
   -0.9045   -0.9401   -1.1778 H   0  0  0  0  0  0  0  0  0  0  0  0
   -2.5248    0.8961   -0.9995 H   0  0  0  0  0  0  0  0  0  0  0  0
   -3.4576    0.0056    0.2039 H   0  0  0  0  0  0  0  0  0  0  0  0
   -2.1689    1.7448    1.2910 H   0  0  0  0  0  0  0  0  0  0  0  0
   -1.5793    0.1620    1.8117 H   0  0  0  0  0  0  0  0  0  0  0  0
   -0.1714    1.5831   -0.4695 H   0  0  0  0  0  0  0  0  0  0  0  0
    0.1432    2.0404    1.2256 H   0  0  0  0  0  0  0  0  0  0  0  0
    1.9269   -2.2662   -0.4041 H   0  0  0  0  0  0  0  0  0  0  0  0
    2.2451   -1.5874    1.2055 H   0  0  0  0  0  0  0  0  0  0  0  0
    3.3434   -1.2497   -0.1681 H   0  0  0  0  0  0  0  0  0  0  0  0
  1  2  1  0  0  0  0
  2  3  1  0  0  0  0
  3  4  1  0  0  0  0
  4  5  1  0  0  0  0
  5  6  1  0  0  0  0
  6  7  2  0  0  0  0
  6  8  1  0  0  0  0
  1  9  1  0  0  0  0
  1 10  1  0  0  0  0
  1 11  1  0  0  0  0
  2 12  1  0  0  0  0
  2 13  1  0  0  0  0
  3 14  1  0  0  0  0
  3 15  1  0  0  0  0
  4 16  1  0  0  0  0
  4 17  1  0  0  0  0
  8 18  1  0  0  0  0
  8 19  1  0  0  0  0
  8 20  1  0  0  0  0
M  END
