 xtb: 6.7.1 (edcfbbe)
          04112516133D

 13 12  0     0  0            999 V2000
    2.9026    0.0378    0.3087 C   0  0  0  0  0  0  0  0  0  0  0  0
    1.4919   -0.1211   -0.1370 C   0  0  0  0  0  0  0  0  0  0  0  0
    1.0283   -1.1160   -0.6474 O   0  0  0  0  0  0  0  0  0  0  0  0
    0.6096    1.1083    0.0895 C   0  0  0  0  0  0  0  0  0  0  0  0
   -0.6756    0.9057   -0.4775 O   0  0  0  0  0  0  0  0  0  0  0  0
   -1.4568   -0.0332    0.1237 N   0  0  0  0  0  0  0  0  0  0  0  0
   -1.0914   -0.4684    1.1715 O   0  0  0  0  0  0  0  0  0  0  0  0
   -2.4538   -0.2860   -0.4746 O   0  0  0  0  0  0  0  0  0  0  0  0
    2.9362    0.4191    1.3249 H   0  0  0  0  0  0  0  0  0  0  0  0
    3.4215   -0.9137    0.2446 H   0  0  0  0  0  0  0  0  0  0  0  0
    3.3973    0.7608   -0.3363 H   0  0  0  0  0  0  0  0  0  0  0  0
    1.0049    1.9790   -0.4329 H   0  0  0  0  0  0  0  0  0  0  0  0
    0.5310    1.3131    1.1622 H   0  0  0  0  0  0  0  0  0  0  0  0
  1  2  1  0  0  0  0
  2  3  2  0  0  0  0
  2  4  1  0  0  0  0
  4  5  1  0  0  0  0
  5  6  1  0  0  0  0
  6  7  4  0  0  0  0
  6  8  4  0  0  0  0
  1  9  1  0  0  0  0
  1 10  1  0  0  0  0
  1 11  1  0  0  0  0
  4 12  1  0  0  0  0
  4 13  1  0  0  0  0
M  END
