 xtb: 6.7.1 (edcfbbe)
          04112516263D

 20 19  0     0  0            999 V2000
   -1.7315   -1.3523    0.3448 C   0  0  0  0  0  0  0  0  0  0  0  0
   -2.3778   -0.0216   -0.0206 C   0  0  0  0  0  0  0  0  0  0  0  0
   -1.4328    0.9309   -0.7528 C   0  0  0  0  0  0  0  0  0  0  0  0
   -0.2773    1.4299    0.1215 C   0  0  0  0  0  0  0  0  0  0  0  0
    0.8101    0.4136    0.3481 C   0  0  0  0  0  0  0  0  0  0  0  0
    1.3429    0.2022    1.4202 O   0  0  0  0  0  0  0  0  0  0  0  0
    1.1727   -0.2032   -0.7705 O   0  0  0  0  0  0  0  0  0  0  0  0
    2.2192   -1.1703   -0.6796 C   0  0  0  0  0  0  0  0  0  0  0  0
   -0.9243   -1.2103    1.0609 H   0  0  0  0  0  0  0  0  0  0  0  0
   -2.4643   -2.0171    0.7957 H   0  0  0  0  0  0  0  0  0  0  0  0
   -1.3270   -1.8355   -0.5420 H   0  0  0  0  0  0  0  0  0  0  0  0
   -3.2373   -0.2138   -0.6658 H   0  0  0  0  0  0  0  0  0  0  0  0
   -2.7454    0.4619    0.8870 H   0  0  0  0  0  0  0  0  0  0  0  0
   -2.0050    1.7996   -1.0812 H   0  0  0  0  0  0  0  0  0  0  0  0
   -1.0248    0.4386   -1.6362 H   0  0  0  0  0  0  0  0  0  0  0  0
   -0.6377    1.7597    1.0964 H   0  0  0  0  0  0  0  0  0  0  0  0
    0.2006    2.2781   -0.3741 H   0  0  0  0  0  0  0  0  0  0  0  0
    1.9010   -2.0063   -0.0551 H   0  0  0  0  0  0  0  0  0  0  0  0
    3.1093   -0.7191   -0.2392 H   0  0  0  0  0  0  0  0  0  0  0  0
    2.4079   -1.4954   -1.6979 H   0  0  0  0  0  0  0  0  0  0  0  0
  1  2  1  0  0  0  0
  2  3  1  0  0  0  0
  3  4  1  0  0  0  0
  4  5  1  0  0  0  0
  5  6  2  0  0  0  0
  5  7  1  0  0  0  0
  7  8  1  0  0  0  0
  1  9  1  0  0  0  0
  1 10  1  0  0  0  0
  1 11  1  0  0  0  0
  2 12  1  0  0  0  0
  2 13  1  0  0  0  0
  3 14  1  0  0  0  0
  3 15  1  0  0  0  0
  4 16  1  0  0  0  0
  4 17  1  0  0  0  0
  8 18  1  0  0  0  0
  8 19  1  0  0  0  0
  8 20  1  0  0  0  0
M  END
