 xtb: 6.7.1 (edcfbbe)
          04112516133D

 13 13  0     0  0            999 V2000
    1.9846    0.8812    1.1199 C   0  0  0  0  0  0  0  0  0  0  0  0
    1.8860   -0.2446    0.1571 C   0  0  0  0  0  0  0  0  0  0  0  0
    2.8159   -0.9239   -0.2140 O   0  0  0  0  0  0  0  0  0  0  0  0
    0.4895   -0.5376   -0.3829 C   0  0  0  0  0  0  0  0  0  0  0  0
   -0.4535    0.3802    0.1485 O   0  0  0  0  0  0  0  0  0  0  0  0
   -1.7615    0.1764   -0.1838 N   0  0  0  0  0  0  0  0  0  0  0  0
   -2.0099   -0.7474   -0.8923 O   0  0  0  0  0  0  0  0  0  0  0  0
   -2.5053    0.9715    0.2919 O   0  0  0  0  0  0  0  0  0  0  0  0
    1.6146    1.7892    0.6494 H   0  0  0  0  0  0  0  0  0  0  0  0
    1.3402    0.6822    1.9732 H   0  0  0  0  0  0  0  0  0  0  0  0
    3.0126    1.0116    1.4431 H   0  0  0  0  0  0  0  0  0  0  0  0
    0.2158   -1.5657   -0.1182 H   0  0  0  0  0  0  0  0  0  0  0  0
    0.5106   -0.4760   -1.4769 H   0  0  0  0  0  0  0  0  0  0  0  0
  1  2  1  0  0  0  0
  2  3  2  0  0  0  0
  2  4  1  0  0  0  0
  4  5  1  0  0  0  0
  5  6  1  0  0  0  0
  6  7  4  0  0  0  0
  6  8  4  0  0  0  0
  7  8  1  0  0  0  0
  1  9  1  0  0  0  0
  1 10  1  0  0  0  0
  1 11  1  0  0  0  0
  4 12  1  0  0  0  0
  4 13  1  0  0  0  0
M  END
