 xtb: 6.7.1 (edcfbbe)
          04112516263D

 20 19  0     0  0            999 V2000
   -2.7317   -0.2772   -0.8115 C   0  0  0  0  0  0  0  0  0  0  0  0
   -1.8827   -0.8017    0.3414 C   0  0  0  0  0  0  0  0  0  0  0  0
   -1.2574    0.3105    1.1848 C   0  0  0  0  0  0  0  0  0  0  0  0
   -0.3187    1.2263    0.3874 C   0  0  0  0  0  0  0  0  0  0  0  0
    0.7795    0.4376   -0.2763 C   0  0  0  0  0  0  0  0  0  0  0  0
    0.9321    0.3364   -1.4766 O   0  0  0  0  0  0  0  0  0  0  0  0
    1.5681   -0.1450    0.6182 O   0  0  0  0  0  0  0  0  0  0  0  0
    2.6581   -0.9512    0.1638 C   0  0  0  0  0  0  0  0  0  0  0  0
   -3.2618   -1.0970   -1.2898 H   0  0  0  0  0  0  0  0  0  0  0  0
   -3.4630    0.4422   -0.4507 H   0  0  0  0  0  0  0  0  0  0  0  0
   -2.1082    0.2014   -1.5629 H   0  0  0  0  0  0  0  0  0  0  0  0
   -2.5062   -1.4154    0.9949 H   0  0  0  0  0  0  0  0  0  0  0  0
   -1.0937   -1.4431   -0.0597 H   0  0  0  0  0  0  0  0  0  0  0  0
   -0.6925   -0.1405    2.0021 H   0  0  0  0  0  0  0  0  0  0  0  0
   -2.0497    0.9252    1.6142 H   0  0  0  0  0  0  0  0  0  0  0  0
    0.1427    1.9401    1.0705 H   0  0  0  0  0  0  0  0  0  0  0  0
   -0.8642    1.7669   -0.3842 H   0  0  0  0  0  0  0  0  0  0  0  0
    2.6348   -1.8735    0.7396 H   0  0  0  0  0  0  0  0  0  0  0  0
    3.5861   -0.4119    0.3493 H   0  0  0  0  0  0  0  0  0  0  0  0
    2.5507   -1.1547   -0.9023 H   0  0  0  0  0  0  0  0  0  0  0  0
  1  2  1  0  0  0  0
  2  3  1  0  0  0  0
  3  4  1  0  0  0  0
  4  5  1  0  0  0  0
  5  6  2  0  0  0  0
  5  7  1  0  0  0  0
  7  8  1  0  0  0  0
  1  9  1  0  0  0  0
  1 10  1  0  0  0  0
  1 11  1  0  0  0  0
  2 12  1  0  0  0  0
  2 13  1  0  0  0  0
  3 14  1  0  0  0  0
  3 15  1  0  0  0  0
  4 16  1  0  0  0  0
  4 17  1  0  0  0  0
  8 18  1  0  0  0  0
  8 19  1  0  0  0  0
  8 20  1  0  0  0  0
M  END
