 xtb: 6.7.1 (edcfbbe)
          04112516133D

 13 13  0     0  0            999 V2000
    1.6544   -0.4175    1.4059 C   0  0  0  0  0  0  0  0  0  0  0  0
    1.5993   -0.1005   -0.0494 C   0  0  0  0  0  0  0  0  0  0  0  0
    2.3215   -0.5946   -0.8834 O   0  0  0  0  0  0  0  0  0  0  0  0
    0.5965    0.9853   -0.4559 C   0  0  0  0  0  0  0  0  0  0  0  0
   -0.6081    0.9574    0.2902 O   0  0  0  0  0  0  0  0  0  0  0  0
   -1.5041   -0.0264   -0.0317 N   0  0  0  0  0  0  0  0  0  0  0  0
   -1.2067   -0.7745   -0.9085 O   0  0  0  0  0  0  0  0  0  0  0  0
   -2.4913   -0.0057    0.6299 O   0  0  0  0  0  0  0  0  0  0  0  0
    2.4461    0.1935    1.8396 H   0  0  0  0  0  0  0  0  0  0  0  0
    0.7260   -0.1804    1.9155 H   0  0  0  0  0  0  0  0  0  0  0  0
    1.9273   -1.4589    1.5524 H   0  0  0  0  0  0  0  0  0  0  0  0
    0.3952    0.9053   -1.5284 H   0  0  0  0  0  0  0  0  0  0  0  0
    1.0300    1.9626   -0.2313 H   0  0  0  0  0  0  0  0  0  0  0  0
  1  2  1  0  0  0  0
  2  3  2  0  0  0  0
  2  4  1  0  0  0  0
  4  5  1  0  0  0  0
  5  6  1  0  0  0  0
  6  7  4  0  0  0  0
  6  8  4  0  0  0  0
  7  8  1  0  0  0  0
  1  9  1  0  0  0  0
  1 10  1  0  0  0  0
  1 11  1  0  0  0  0
  4 12  1  0  0  0  0
  4 13  1  0  0  0  0
M  END
