 xtb: 6.7.1 (edcfbbe)
          04112514053D

 17 16  0     0  0            999 V2000
    3.4873   -0.3795   -0.0030 C   0  0  0  0  0  0  0  0  0  0  0  0
    1.9815   -0.5981    0.0952 C   0  0  0  0  0  0  0  0  0  0  0  0
    1.2199    0.6897   -0.2064 C   0  0  0  0  0  0  0  0  0  0  0  0
   -0.2565    0.5983   -0.1421 C   0  0  0  0  0  0  0  0  0  0  0  0
   -0.9947   -0.4830    0.1487 C   0  0  0  0  0  0  0  0  0  0  0  0
   -2.4407   -0.4169    0.1719 C   0  0  0  0  0  0  0  0  0  0  0  0
   -3.1153    0.5723   -0.0563 O   0  0  0  0  0  0  0  0  0  0  0  0
    4.0203   -1.3011    0.2156 H   0  0  0  0  0  0  0  0  0  0  0  0
    3.7628   -0.0544   -1.0036 H   0  0  0  0  0  0  0  0  0  0  0  0
    3.8114    0.3792    0.7056 H   0  0  0  0  0  0  0  0  0  0  0  0
    1.7316   -0.9419    1.1003 H   0  0  0  0  0  0  0  0  0  0  0  0
    1.6824   -1.3725   -0.6131 H   0  0  0  0  0  0  0  0  0  0  0  0
    1.4872    1.0496   -1.2052 H   0  0  0  0  0  0  0  0  0  0  0  0
    1.5345    1.4746    0.4889 H   0  0  0  0  0  0  0  0  0  0  0  0
   -0.7936    1.5155   -0.3576 H   0  0  0  0  0  0  0  0  0  0  0  0
   -0.5527   -1.4396    0.3748 H   0  0  0  0  0  0  0  0  0  0  0  0
   -2.9428   -1.3692    0.4233 H   0  0  0  0  0  0  0  0  0  0  0  0
  1  2  1  0  0  0  0
  2  3  1  0  0  0  0
  3  4  1  0  0  0  0
  4  5  2  0  0  0  0
  5  6  1  0  0  0  0
  6  7  2  0  0  0  0
  1  8  1  0  0  0  0
  1  9  1  0  0  0  0
  1 10  1  0  0  0  0
  2 11  1  0  0  0  0
  2 12  1  0  0  0  0
  3 13  1  0  0  0  0
  3 14  1  0  0  0  0
  4 15  1  0  0  0  0
  5 16  1  0  0  0  0
  6 17  1  0  0  0  0
M  END
