 xtb: 6.7.1 (edcfbbe)
          04112514233D

 18 17  0     0  0            999 V2000
    2.7251    0.5274   -0.1371 C   0  0  0  0  0  0  0  0  0  0  0  0
    1.2619    0.4344    0.2788 C   0  0  0  0  0  0  0  0  0  0  0  0
    0.6419   -0.9023   -0.1215 C   0  0  0  0  0  0  0  0  0  0  0  0
   -0.8327   -0.9969    0.2835 C   0  0  0  0  0  0  0  0  0  0  0  0
   -1.6742   -0.0018   -0.4492 C   0  0  0  0  0  0  0  0  0  0  0  0
   -2.4399    0.9065    0.1258 C   0  0  0  0  0  0  0  0  0  0  0  0
    3.3053   -0.2647    0.3313 H   0  0  0  0  0  0  0  0  0  0  0  0
    3.1469    1.4844    0.1597 H   0  0  0  0  0  0  0  0  0  0  0  0
    2.8212    0.4293   -1.2161 H   0  0  0  0  0  0  0  0  0  0  0  0
    1.1831    0.5566    1.3615 H   0  0  0  0  0  0  0  0  0  0  0  0
    0.6962    1.2451   -0.1860 H   0  0  0  0  0  0  0  0  0  0  0  0
    0.7280   -1.0303   -1.2031 H   0  0  0  0  0  0  0  0  0  0  0  0
    1.1965   -1.7135    0.3552 H   0  0  0  0  0  0  0  0  0  0  0  0
   -1.1954   -2.0017    0.0485 H   0  0  0  0  0  0  0  0  0  0  0  0
   -0.9296   -0.8433    1.3599 H   0  0  0  0  0  0  0  0  0  0  0  0
   -1.6211   -0.0628   -1.5292 H   0  0  0  0  0  0  0  0  0  0  0  0
   -3.0322    1.6013   -0.4450 H   0  0  0  0  0  0  0  0  0  0  0  0
   -2.5091    0.9904    1.1982 H   0  0  0  0  0  0  0  0  0  0  0  0
  1  2  1  0  0  0  0
  2  3  1  0  0  0  0
  3  4  1  0  0  0  0
  4  5  1  0  0  0  0
  5  6  2  0  0  0  0
  1  7  1  0  0  0  0
  1  8  1  0  0  0  0
  1  9  1  0  0  0  0
  2 10  1  0  0  0  0
  2 11  1  0  0  0  0
  3 12  1  0  0  0  0
  3 13  1  0  0  0  0
  4 14  1  0  0  0  0
  4 15  1  0  0  0  0
  5 16  1  0  0  0  0
  6 17  1  0  0  0  0
  6 18  1  0  0  0  0
M  END
