 xtb: 6.7.1 (edcfbbe)
          04112516113D

 17 16  0     0  0            999 V2000
   -3.9636   -0.9429   -0.1819 C   0  0  0  0  0  0  0  0  0  0  0  0
   -3.0722    0.1615    0.3729 C   0  0  0  0  0  0  0  0  0  0  0  0
   -1.6925    0.1527   -0.2808 C   0  0  0  0  0  0  0  0  0  0  0  0
   -0.7927    1.2542    0.2741 C   0  0  0  0  0  0  0  0  0  0  0  0
    0.5739    1.2835   -0.3800 C   0  0  0  0  0  0  0  0  0  0  0  0
    1.6268   -0.3342    0.0397 Br  0  0  0  0  0  0  0  0  0  0  0  0
   -4.9391   -0.9226    0.2973 H   0  0  0  0  0  0  0  0  0  0  0  0
   -3.5147   -1.9181   -0.0074 H   0  0  0  0  0  0  0  0  0  0  0  0
   -4.1040   -0.8179   -1.2532 H   0  0  0  0  0  0  0  0  0  0  0  0
   -3.5464    1.1308    0.2036 H   0  0  0  0  0  0  0  0  0  0  0  0
   -2.9608    0.0298    1.4513 H   0  0  0  0  0  0  0  0  0  0  0  0
   -1.2231   -0.8193   -0.1103 H   0  0  0  0  0  0  0  0  0  0  0  0
   -1.8035    0.2836   -1.3601 H   0  0  0  0  0  0  0  0  0  0  0  0
   -1.2569    2.2277    0.0961 H   0  0  0  0  0  0  0  0  0  0  0  0
   -0.6819    1.1284    1.3534 H   0  0  0  0  0  0  0  0  0  0  0  0
    1.1783    2.1152   -0.0233 H   0  0  0  0  0  0  0  0  0  0  0  0
    0.5046    1.3072   -1.4661 H   0  0  0  0  0  0  0  0  0  0  0  0
  1  2  1  0  0  0  0
  2  3  1  0  0  0  0
  3  4  1  0  0  0  0
  4  5  1  0  0  0  0
  5  6  1  0  0  0  0
  1  7  1  0  0  0  0
  1  8  1  0  0  0  0
  1  9  1  0  0  0  0
  2 10  1  0  0  0  0
  2 11  1  0  0  0  0
  3 12  1  0  0  0  0
  3 13  1  0  0  0  0
  4 14  1  0  0  0  0
  4 15  1  0  0  0  0
  5 16  1  0  0  0  0
  5 17  1  0  0  0  0
M  END
