 xtb: 6.7.1 (edcfbbe)
          04112516593D

 20 19  0     0  0            999 V2000
   -3.6476   -0.7244    0.0858 C   0  0  0  0  0  0  0  0  0  0  0  0
   -2.2323   -0.4030   -0.3784 C   0  0  0  0  0  0  0  0  0  0  0  0
   -1.6083    0.7145    0.4558 C   0  0  0  0  0  0  0  0  0  0  0  0
   -0.1869    1.0320    0.0172 C   0  0  0  0  0  0  0  0  0  0  0  0
    0.6460   -0.0977    0.3172 O   0  0  0  0  0  0  0  0  0  0  0  0
    1.9097   -0.0581   -0.0829 C   0  0  0  0  0  0  0  0  0  0  0  0
    2.3861    0.8877   -0.6788 O   0  0  0  0  0  0  0  0  0  0  0  0
    2.6497   -1.3105    0.2781 C   0  0  0  0  0  0  0  0  0  0  0  0
   -3.6434   -1.0510    1.1228 H   0  0  0  0  0  0  0  0  0  0  0  0
   -4.2830    0.1543    0.0053 H   0  0  0  0  0  0  0  0  0  0  0  0
   -4.0765   -1.5163   -0.5225 H   0  0  0  0  0  0  0  0  0  0  0  0
   -1.6086   -1.2950   -0.2993 H   0  0  0  0  0  0  0  0  0  0  0  0
   -2.2524   -0.1003   -1.4276 H   0  0  0  0  0  0  0  0  0  0  0  0
   -2.2032    1.6235    0.3625 H   0  0  0  0  0  0  0  0  0  0  0  0
   -1.5904    0.4196    1.5058 H   0  0  0  0  0  0  0  0  0  0  0  0
   -0.1300    1.2311   -1.0584 H   0  0  0  0  0  0  0  0  0  0  0  0
    0.2120    1.9038    0.5463 H   0  0  0  0  0  0  0  0  0  0  0  0
    2.0990   -1.8614    1.0325 H   0  0  0  0  0  0  0  0  0  0  0  0
    3.6458   -1.0549    0.6266 H   0  0  0  0  0  0  0  0  0  0  0  0
    2.7513   -1.9205   -0.6170 H   0  0  0  0  0  0  0  0  0  0  0  0
  1  2  1  0  0  0  0
  2  3  1  0  0  0  0
  3  4  1  0  0  0  0
  4  5  1  0  0  0  0
  5  6  1  0  0  0  0
  6  7  2  0  0  0  0
  6  8  1  0  0  0  0
  1  9  1  0  0  0  0
  1 10  1  0  0  0  0
  1 11  1  0  0  0  0
  2 12  1  0  0  0  0
  2 13  1  0  0  0  0
  3 14  1  0  0  0  0
  3 15  1  0  0  0  0
  4 16  1  0  0  0  0
  4 17  1  0  0  0  0
  8 18  1  0  0  0  0
  8 19  1  0  0  0  0
  8 20  1  0  0  0  0
M  END
