 xtb: 6.7.1 (edcfbbe)
          04112516133D

 33 34  0     0  0            999 V2000
   -4.1474   -1.0452    1.6448 C   0  0  0  0  0  0  0  0  0  0  0  0
   -3.3961   -0.4627    0.4865 C   0  0  0  0  0  0  0  0  0  0  0  0
   -4.0553   -0.2148   -0.7095 C   0  0  0  0  0  0  0  0  0  0  0  0
   -3.3895    0.3440   -1.7859 C   0  0  0  0  0  0  0  0  0  0  0  0
   -2.0426    0.6265   -1.6831 C   0  0  0  0  0  0  0  0  0  0  0  0
   -1.3586    0.3576   -0.5009 C   0  0  0  0  0  0  0  0  0  0  0  0
   -2.0369   -0.1555    0.6098 C   0  0  0  0  0  0  0  0  0  0  0  0
   -1.3433   -0.3494    1.9242 C   0  0  0  0  0  0  0  0  0  0  0  0
    0.0135    0.6739   -0.4472 N   0  0  0  0  0  0  0  0  0  0  0  0
    1.0191   -0.1936   -0.1763 C   0  0  0  0  0  0  0  0  0  0  0  0
    0.7446   -1.5697   -0.0590 C   0  0  0  0  0  0  0  0  0  0  0  0
    1.7271   -2.4797    0.2370 C   0  0  0  0  0  0  0  0  0  0  0  0
    3.0439   -2.0628    0.4290 C   0  0  0  0  0  0  0  0  0  0  0  0
    3.3445   -0.7314    0.2932 C   0  0  0  0  0  0  0  0  0  0  0  0
    2.3638    0.2253   -0.0152 C   0  0  0  0  0  0  0  0  0  0  0  0
    2.8457    1.5968   -0.1365 C   0  0  0  0  0  0  0  0  0  0  0  0
    4.0036    1.9331    0.0768 O   0  0  0  0  0  0  0  0  0  0  0  0
    1.9472    2.5216   -0.5099 O   0  0  0  0  0  0  0  0  0  0  0  0
   -3.6392   -1.9272    2.0292 H   0  0  0  0  0  0  0  0  0  0  0  0
   -4.2193   -0.3220    2.4563 H   0  0  0  0  0  0  0  0  0  0  0  0
   -5.1539   -1.3234    1.3448 H   0  0  0  0  0  0  0  0  0  0  0  0
   -5.1054   -0.4523   -0.7951 H   0  0  0  0  0  0  0  0  0  0  0  0
   -3.9173    0.5483   -2.7049 H   0  0  0  0  0  0  0  0  0  0  0  0
   -1.5041    1.0471   -2.5188 H   0  0  0  0  0  0  0  0  0  0  0  0
   -0.3838    0.1592    1.9408 H   0  0  0  0  0  0  0  0  0  0  0  0
   -1.9580    0.0443    2.7307 H   0  0  0  0  0  0  0  0  0  0  0  0
   -1.1695   -1.4066    2.1224 H   0  0  0  0  0  0  0  0  0  0  0  0
    0.2732    1.5950   -0.7688 H   0  0  0  0  0  0  0  0  0  0  0  0
   -0.2665   -1.9021   -0.2332 H   0  0  0  0  0  0  0  0  0  0  0  0
    1.4796   -3.5275    0.3127 H   0  0  0  0  0  0  0  0  0  0  0  0
    3.8160   -2.7765    0.6667 H   0  0  0  0  0  0  0  0  0  0  0  0
    4.3563   -0.3735    0.4159 H   0  0  0  0  0  0  0  0  0  0  0  0
    2.3590    3.4051   -0.5609 H   0  0  0  0  0  0  0  0  0  0  0  0
  1  2  1  0  0  0  0
  2  3  4  0  0  0  0
  3  4  4  0  0  0  0
  4  5  4  0  0  0  0
  5  6  4  0  0  0  0
  2  7  4  0  0  0  0
  6  7  4  0  0  0  0
  7  8  1  0  0  0  0
  6  9  1  0  0  0  0
  9 10  4  0  0  0  0
 10 11  4  0  0  0  0
 11 12  2  0  0  0  0
 12 13  4  0  0  0  0
 13 14  2  0  0  0  0
 10 15  4  0  0  0  0
 14 15  4  0  0  0  0
 15 16  1  0  0  0  0
 16 17  2  0  0  0  0
 16 18  1  0  0  0  0
  1 19  1  0  0  0  0
  1 20  1  0  0  0  0
  1 21  1  0  0  0  0
  3 22  1  0  0  0  0
  4 23  1  0  0  0  0
  5 24  1  0  0  0  0
  8 25  1  0  0  0  0
  8 26  1  0  0  0  0
  8 27  1  0  0  0  0
  9 28  1  0  0  0  0
 11 29  1  0  0  0  0
 12 30  1  0  0  0  0
 13 31  1  0  0  0  0
 14 32  1  0  0  0  0
 18 33  1  0  0  0  0
M  END
