 xtb: 6.7.1 (edcfbbe)
          04112516203D

 17 16  0     0  0            999 V2000
   -3.0822   -0.6498   -0.8524 C   0  0  0  0  0  0  0  0  0  0  0  0
   -3.0478    0.0381    0.5078 C   0  0  0  0  0  0  0  0  0  0  0  0
   -1.6385    0.3276    1.0287 C   0  0  0  0  0  0  0  0  0  0  0  0
   -0.8457    1.3291    0.1790 C   0  0  0  0  0  0  0  0  0  0  0  0
    0.0671    0.6826   -0.8457 C   0  0  0  0  0  0  0  0  0  0  0  0
    1.5522   -0.2985    0.0171 Br  0  0  0  0  0  0  0  0  0  0  0  0
   -4.1025   -0.9331   -1.1000 H   0  0  0  0  0  0  0  0  0  0  0  0
   -2.4742   -1.5522   -0.8400 H   0  0  0  0  0  0  0  0  0  0  0  0
   -2.7201    0.0103   -1.6368 H   0  0  0  0  0  0  0  0  0  0  0  0
   -3.6080    0.9742    0.4527 H   0  0  0  0  0  0  0  0  0  0  0  0
   -3.5497   -0.6019    1.2366 H   0  0  0  0  0  0  0  0  0  0  0  0
   -1.7336    0.7253    2.0407 H   0  0  0  0  0  0  0  0  0  0  0  0
   -1.0811   -0.6088    1.1043 H   0  0  0  0  0  0  0  0  0  0  0  0
   -1.5372    1.9787   -0.3626 H   0  0  0  0  0  0  0  0  0  0  0  0
   -0.2405    1.9644    0.8290 H   0  0  0  0  0  0  0  0  0  0  0  0
    0.5495    1.4243   -1.4798 H   0  0  0  0  0  0  0  0  0  0  0  0
   -0.4437   -0.0582   -1.4551 H   0  0  0  0  0  0  0  0  0  0  0  0
  1  2  1  0  0  0  0
  2  3  1  0  0  0  0
  3  4  1  0  0  0  0
  4  5  1  0  0  0  0
  5  6  1  0  0  0  0
  1  7  1  0  0  0  0
  1  8  1  0  0  0  0
  1  9  1  0  0  0  0
  2 10  1  0  0  0  0
  2 11  1  0  0  0  0
  3 12  1  0  0  0  0
  3 13  1  0  0  0  0
  4 14  1  0  0  0  0
  4 15  1  0  0  0  0
  5 16  1  0  0  0  0
  5 17  1  0  0  0  0
M  END
