 xtb: 6.7.1 (edcfbbe)
          04112516113D

 17 16  0     0  0            999 V2000
   -2.9127    0.9278   -0.0163 C   0  0  0  0  0  0  0  0  0  0  0  0
   -2.3188   -0.4112    0.4085 C   0  0  0  0  0  0  0  0  0  0  0  0
   -0.9283   -0.6643   -0.1733 C   0  0  0  0  0  0  0  0  0  0  0  0
    0.1247    0.3056    0.3597 C   0  0  0  0  0  0  0  0  0  0  0  0
    1.5119   -0.0572   -0.1065 C   0  0  0  0  0  0  0  0  0  0  0  0
    1.7705   -1.0057   -0.8105 O   0  0  0  0  0  0  0  0  0  0  0  0
    2.4952    0.7452    0.3078 O   0  0  0  0  0  0  0  0  0  0  0  0
   -2.3530    1.7593    0.4028 H   0  0  0  0  0  0  0  0  0  0  0  0
   -2.9086    1.0171   -1.1002 H   0  0  0  0  0  0  0  0  0  0  0  0
   -3.9405    1.0071    0.3289 H   0  0  0  0  0  0  0  0  0  0  0  0
   -2.9792   -1.2126    0.0724 H   0  0  0  0  0  0  0  0  0  0  0  0
   -2.2707   -0.4599    1.4982 H   0  0  0  0  0  0  0  0  0  0  0  0
   -0.6137   -1.6821    0.0668 H   0  0  0  0  0  0  0  0  0  0  0  0
   -0.9637   -0.5903   -1.2620 H   0  0  0  0  0  0  0  0  0  0  0  0
    0.1162    0.2945    1.4526 H   0  0  0  0  0  0  0  0  0  0  0  0
   -0.0925    1.3214    0.0240 H   0  0  0  0  0  0  0  0  0  0  0  0
    2.1944    1.4813    0.8713 H   0  0  0  0  0  0  0  0  0  0  0  0
  1  2  1  0  0  0  0
  2  3  1  0  0  0  0
  3  4  1  0  0  0  0
  4  5  1  0  0  0  0
  5  6  2  0  0  0  0
  5  7  1  0  0  0  0
  1  8  1  0  0  0  0
  1  9  1  0  0  0  0
  1 10  1  0  0  0  0
  2 11  1  0  0  0  0
  2 12  1  0  0  0  0
  3 13  1  0  0  0  0
  3 14  1  0  0  0  0
  4 15  1  0  0  0  0
  4 16  1  0  0  0  0
  7 17  1  0  0  0  0
M  END
