 xtb: 6.7.1 (edcfbbe)
          04112514483D

 18 17  0     0  0            999 V2000
    2.4714    0.7852    0.2794 C   0  0  0  0  0  0  0  0  0  0  0  0
    1.9293   -0.6096   -0.0127 C   0  0  0  0  0  0  0  0  0  0  0  0
    0.4960   -0.6002   -0.5450 C   0  0  0  0  0  0  0  0  0  0  0  0
   -0.5300   -0.1279    0.4908 C   0  0  0  0  0  0  0  0  0  0  0  0
   -1.9229   -0.2597   -0.0359 C   0  0  0  0  0  0  0  0  0  0  0  0
   -2.7631    0.7455   -0.1968 C   0  0  0  0  0  0  0  0  0  0  0  0
    3.5177    0.7287    0.5701 H   0  0  0  0  0  0  0  0  0  0  0  0
    1.9207    1.2570    1.0887 H   0  0  0  0  0  0  0  0  0  0  0  0
    2.3940    1.4148   -0.6043 H   0  0  0  0  0  0  0  0  0  0  0  0
    2.5704   -1.0875   -0.7573 H   0  0  0  0  0  0  0  0  0  0  0  0
    1.9722   -1.2135    0.8965 H   0  0  0  0  0  0  0  0  0  0  0  0
    0.4391    0.0464   -1.4237 H   0  0  0  0  0  0  0  0  0  0  0  0
    0.2326   -1.6125   -0.8617 H   0  0  0  0  0  0  0  0  0  0  0  0
   -0.4286   -0.7427    1.3899 H   0  0  0  0  0  0  0  0  0  0  0  0
   -0.3400    0.9110    0.7612 H   0  0  0  0  0  0  0  0  0  0  0  0
   -2.2213   -1.2652   -0.3054 H   0  0  0  0  0  0  0  0  0  0  0  0
   -3.7571    0.6046   -0.5857 H   0  0  0  0  0  0  0  0  0  0  0  0
   -2.4912    1.7563    0.0604 H   0  0  0  0  0  0  0  0  0  0  0  0
  1  2  1  0  0  0  0
  2  3  1  0  0  0  0
  3  4  1  0  0  0  0
  4  5  1  0  0  0  0
  5  6  2  0  0  0  0
  1  7  1  0  0  0  0
  1  8  1  0  0  0  0
  1  9  1  0  0  0  0
  2 10  1  0  0  0  0
  2 11  1  0  0  0  0
  3 12  1  0  0  0  0
  3 13  1  0  0  0  0
  4 14  1  0  0  0  0
  4 15  1  0  0  0  0
  5 16  1  0  0  0  0
  6 17  1  0  0  0  0
  6 18  1  0  0  0  0
M  END
