 xtb: 6.7.1 (edcfbbe)
          04112517153D

 20 19  0     0  0            999 V2000
   -3.6735   -0.8115   -0.2016 C   0  0  0  0  0  0  0  0  0  0  0  0
   -2.6439    0.0907    0.4683 C   0  0  0  0  0  0  0  0  0  0  0  0
   -1.2453   -0.1422   -0.0985 C   0  0  0  0  0  0  0  0  0  0  0  0
   -0.2052    0.7627    0.5785 C   0  0  0  0  0  0  0  0  0  0  0  0
    1.1421    0.5096   -0.0397 C   0  0  0  0  0  0  0  0  0  0  0  0
    1.6101    1.1272   -0.9738 O   0  0  0  0  0  0  0  0  0  0  0  0
    1.7618   -0.5139    0.5366 O   0  0  0  0  0  0  0  0  0  0  0  0
    3.0328   -0.9017    0.0086 C   0  0  0  0  0  0  0  0  0  0  0  0
   -4.6626   -0.6306    0.2107 H   0  0  0  0  0  0  0  0  0  0  0  0
   -3.7068   -0.6219   -1.2721 H   0  0  0  0  0  0  0  0  0  0  0  0
   -3.4217   -1.8580   -0.0469 H   0  0  0  0  0  0  0  0  0  0  0  0
   -2.9238    1.1351    0.3195 H   0  0  0  0  0  0  0  0  0  0  0  0
   -2.6339   -0.1034    1.5423 H   0  0  0  0  0  0  0  0  0  0  0  0
   -1.2473    0.0586   -1.1723 H   0  0  0  0  0  0  0  0  0  0  0  0
   -0.9599   -1.1857    0.0497 H   0  0  0  0  0  0  0  0  0  0  0  0
   -0.1581    0.5357    1.6427 H   0  0  0  0  0  0  0  0  0  0  0  0
   -0.4699    1.8086    0.4262 H   0  0  0  0  0  0  0  0  0  0  0  0
    3.7195   -0.0547    0.0307 H   0  0  0  0  0  0  0  0  0  0  0  0
    2.9203   -1.2396   -1.0222 H   0  0  0  0  0  0  0  0  0  0  0  0
    3.3825   -1.7063    0.6475 H   0  0  0  0  0  0  0  0  0  0  0  0
  1  2  1  0  0  0  0
  2  3  1  0  0  0  0
  3  4  1  0  0  0  0
  4  5  1  0  0  0  0
  5  6  2  0  0  0  0
  5  7  1  0  0  0  0
  7  8  1  0  0  0  0
  1  9  1  0  0  0  0
  1 10  1  0  0  0  0
  1 11  1  0  0  0  0
  2 12  1  0  0  0  0
  2 13  1  0  0  0  0
  3 14  1  0  0  0  0
  3 15  1  0  0  0  0
  4 16  1  0  0  0  0
  4 17  1  0  0  0  0
  8 18  1  0  0  0  0
  8 19  1  0  0  0  0
  8 20  1  0  0  0  0
M  END
