 xtb: 6.7.1 (edcfbbe)
          04112516263D

 20 19  0     0  0            999 V2000
   -3.2950    0.0113    0.9183 C   0  0  0  0  0  0  0  0  0  0  0  0
   -2.6699   -0.5728   -0.3437 C   0  0  0  0  0  0  0  0  0  0  0  0
   -1.1495   -0.7089   -0.2542 C   0  0  0  0  0  0  0  0  0  0  0  0
   -0.4465    0.6473   -0.1986 C   0  0  0  0  0  0  0  0  0  0  0  0
    1.0553    0.5530   -0.2175 C   0  0  0  0  0  0  0  0  0  0  0  0
    1.7882    1.4249   -0.6415 O   0  0  0  0  0  0  0  0  0  0  0  0
    1.5106   -0.5810    0.2994 O   0  0  0  0  0  0  0  0  0  0  0  0
    2.9277   -0.7603    0.3507 C   0  0  0  0  0  0  0  0  0  0  0  0
   -3.0087   -0.5733    1.7894 H   0  0  0  0  0  0  0  0  0  0  0  0
   -2.9809    1.0401    1.0724 H   0  0  0  0  0  0  0  0  0  0  0  0
   -4.3791   -0.0007    0.8390 H   0  0  0  0  0  0  0  0  0  0  0  0
   -3.0917   -1.5641   -0.5196 H   0  0  0  0  0  0  0  0  0  0  0  0
   -2.9272    0.0530   -1.2006 H   0  0  0  0  0  0  0  0  0  0  0  0
   -0.7903   -1.2558   -1.1281 H   0  0  0  0  0  0  0  0  0  0  0  0
   -0.8855   -1.2885    0.6310 H   0  0  0  0  0  0  0  0  0  0  0  0
   -0.7106    1.1685    0.7247 H   0  0  0  0  0  0  0  0  0  0  0  0
   -0.7482    1.2831   -1.0328 H   0  0  0  0  0  0  0  0  0  0  0  0
    3.3507   -0.6814   -0.6514 H   0  0  0  0  0  0  0  0  0  0  0  0
    3.0817   -1.7521    0.7638 H   0  0  0  0  0  0  0  0  0  0  0  0
    3.3778    0.0038    0.9855 H   0  0  0  0  0  0  0  0  0  0  0  0
  1  2  1  0  0  0  0
  2  3  1  0  0  0  0
  3  4  1  0  0  0  0
  4  5  1  0  0  0  0
  5  6  2  0  0  0  0
  5  7  1  0  0  0  0
  7  8  1  0  0  0  0
  1  9  1  0  0  0  0
  1 10  1  0  0  0  0
  1 11  1  0  0  0  0
  2 12  1  0  0  0  0
  2 13  1  0  0  0  0
  3 14  1  0  0  0  0
  3 15  1  0  0  0  0
  4 16  1  0  0  0  0
  4 17  1  0  0  0  0
  8 18  1  0  0  0  0
  8 19  1  0  0  0  0
  8 20  1  0  0  0  0
M  END
