 xtb: 6.7.1 (edcfbbe)
          04112516053D

 23 23  0     0  0            999 V2000
   -3.9379   -0.5963    0.0027 C   0  0  0  0  0  0  0  0  0  0  0  0
   -2.9741    0.4432   -0.0006 O   0  0  0  0  0  0  0  0  0  0  0  0
   -1.6538    0.1046   -0.0006 C   0  0  0  0  0  0  0  0  0  0  0  0
   -1.1565   -1.1773    0.0001 C   0  0  0  0  0  0  0  0  0  0  0  0
    0.2271   -1.3991   -0.0002 C   0  0  0  0  0  0  0  0  0  0  0  0
    1.0824   -0.2985   -0.0005 C   0  0  0  0  0  0  0  0  0  0  0  0
    0.6037    1.0181   -0.0011 C   0  0  0  0  0  0  0  0  0  0  0  0
   -0.7836    1.2194   -0.0018 C   0  0  0  0  0  0  0  0  0  0  0  0
   -1.3200    2.4579   -0.0036 O   0  0  0  0  0  0  0  0  0  0  0  0
    1.5635    1.9750   -0.0014 O   0  0  0  0  0  0  0  0  0  0  0  0
    1.2301    3.3566    0.0058 C   0  0  0  0  0  0  0  0  0  0  0  0
    2.7985   -0.4940   -0.0003 Cl  0  0  0  0  0  0  0  0  0  0  0  0
    0.7136   -2.7694    0.0000 C   0  0  0  0  0  0  0  0  0  0  0  0
    0.0026   -3.7564    0.0009 O   0  0  0  0  0  0  0  0  0  0  0  0
   -3.8452   -1.2180   -0.8898 H   0  0  0  0  0  0  0  0  0  0  0  0
   -4.9004   -0.0907    0.0037 H   0  0  0  0  0  0  0  0  0  0  0  0
   -3.8419   -1.2152    0.8968 H   0  0  0  0  0  0  0  0  0  0  0  0
   -1.7925   -2.0470    0.0006 H   0  0  0  0  0  0  0  0  0  0  0  0
   -2.2923    2.3856   -0.0034 H   0  0  0  0  0  0  0  0  0  0  0  0
    0.6656    3.6226    0.8994 H   0  0  0  0  0  0  0  0  0  0  0  0
    0.6654    3.6319   -0.8848 H   0  0  0  0  0  0  0  0  0  0  0  0
    2.1913    3.8660    0.0084 H   0  0  0  0  0  0  0  0  0  0  0  0
    1.8096   -2.8748   -0.0007 H   0  0  0  0  0  0  0  0  0  0  0  0
  1  2  1  0  0  0  0
  2  3  1  0  0  0  0
  3  4  4  0  0  0  0
  4  5  4  0  0  0  0
  5  6  4  0  0  0  0
  6  7  4  0  0  0  0
  3  8  4  0  0  0  0
  7  8  4  0  0  0  0
  8  9  1  0  0  0  0
  7 10  1  0  0  0  0
 10 11  1  0  0  0  0
  6 12  1  0  0  0  0
  5 13  1  0  0  0  0
 13 14  2  0  0  0  0
  1 15  1  0  0  0  0
  1 16  1  0  0  0  0
  1 17  1  0  0  0  0
  4 18  1  0  0  0  0
  9 19  1  0  0  0  0
 11 20  1  0  0  0  0
 11 21  1  0  0  0  0
 11 22  1  0  0  0  0
 13 23  1  0  0  0  0
M  END
