 xtb: 6.7.1 (edcfbbe)
          04112516153D

 26 25  0     0  0            999 V2000
    0.6927   -0.2557   -1.5463 C   0  0  0  0  0  0  0  0  0  0  0  0
    1.4960   -0.3650   -0.2580 C   0  0  0  0  0  0  0  0  0  0  0  0
    2.8791   -0.9587   -0.5221 C   0  0  0  0  0  0  0  0  0  0  0  0
    0.8818   -1.1600    0.8530 C   0  0  0  0  0  0  0  0  0  0  0  0
   -0.2518   -1.6592    1.0828 N   0  0  0  0  0  0  0  0  0  0  0  0
   -1.3070   -1.4949    0.1469 O   0  0  0  0  0  0  0  0  0  0  0  0
   -1.9949   -0.3169    0.2019 C   0  0  0  0  0  0  0  0  0  0  0  0
   -1.6377    0.6447    0.8549 O   0  0  0  0  0  0  0  0  0  0  0  0
   -3.0743   -0.3986   -0.5775 N   0  0  0  0  0  0  0  0  0  0  0  0
   -4.0123    0.6903   -0.7375 C   0  0  0  0  0  0  0  0  0  0  0  0
    1.6378    1.3241    0.5421 S   0  0  0  0  0  0  0  0  0  0  0  0
    2.9578    2.1063   -0.4455 C   0  0  0  0  0  0  0  0  0  0  0  0
    1.3012    0.2050   -2.3211 H   0  0  0  0  0  0  0  0  0  0  0  0
    0.3874   -1.2443   -1.8846 H   0  0  0  0  0  0  0  0  0  0  0  0
   -0.1926    0.3597   -1.4012 H   0  0  0  0  0  0  0  0  0  0  0  0
    3.5001   -0.9027    0.3682 H   0  0  0  0  0  0  0  0  0  0  0  0
    3.3710   -0.4332   -1.3351 H   0  0  0  0  0  0  0  0  0  0  0  0
    2.7676   -2.0034   -0.8061 H   0  0  0  0  0  0  0  0  0  0  0  0
    1.5684   -1.3776    1.6645 H   0  0  0  0  0  0  0  0  0  0  0  0
   -3.2610   -1.2764   -1.0380 H   0  0  0  0  0  0  0  0  0  0  0  0
   -4.0842    0.9691   -1.7879 H   0  0  0  0  0  0  0  0  0  0  0  0
   -3.6443    1.5359   -0.1600 H   0  0  0  0  0  0  0  0  0  0  0  0
   -4.9946    0.3996   -0.3674 H   0  0  0  0  0  0  0  0  0  0  0  0
    2.7026    2.0703   -1.4986 H   0  0  0  0  0  0  0  0  0  0  0  0
    3.9104    1.6306   -0.2440 H   0  0  0  0  0  0  0  0  0  0  0  0
    2.9780    3.1363   -0.1060 H   0  0  0  0  0  0  0  0  0  0  0  0
  1  2  1  0  0  0  0
  2  3  1  0  0  0  0
  2  4  1  0  0  0  0
  4  5  2  0  0  0  0
  5  6  1  0  0  0  0
  6  7  1  0  0  0  0
  7  8  2  0  0  0  0
  7  9  4  0  0  0  0
  9 10  1  0  0  0  0
  2 11  1  0  0  0  0
 11 12  1  0  0  0  0
  1 13  1  0  0  0  0
  1 14  1  0  0  0  0
  1 15  1  0  0  0  0
  3 16  1  0  0  0  0
  3 17  1  0  0  0  0
  3 18  1  0  0  0  0
  4 19  1  0  0  0  0
  9 20  1  0  0  0  0
 10 21  1  0  0  0  0
 10 22  1  0  0  0  0
 10 23  1  0  0  0  0
 12 24  1  0  0  0  0
 12 25  1  0  0  0  0
 12 26  1  0  0  0  0
M  END
