 xtb: 6.7.1 (edcfbbe)
          04112514233D

 23 22  0     0  0            999 V2000
    3.6021   -0.9802    0.0662 C   0  0  0  0  0  0  0  0  0  0  0  0
    2.4608   -0.0211    0.4017 C   0  0  0  0  0  0  0  0  0  0  0  0
    2.7332    1.3504   -0.2124 C   0  0  0  0  0  0  0  0  0  0  0  0
    1.1351   -0.6094   -0.0934 C   0  0  0  0  0  0  0  0  0  0  0  0
   -0.0800    0.1762    0.3806 C   0  0  0  0  0  0  0  0  0  0  0  0
   -1.2570   -0.5576    0.0116 O   0  0  0  0  0  0  0  0  0  0  0  0
   -2.4040    0.1007   -0.0971 C   0  0  0  0  0  0  0  0  0  0  0  0
   -2.5120    1.2913    0.1195 O   0  0  0  0  0  0  0  0  0  0  0  0
   -3.5218   -0.7999   -0.5282 C   0  0  0  0  0  0  0  0  0  0  0  0
    3.6751   -1.1176   -1.0100 H   0  0  0  0  0  0  0  0  0  0  0  0
    3.4380   -1.9508    0.5272 H   0  0  0  0  0  0  0  0  0  0  0  0
    4.5480   -0.5845    0.4268 H   0  0  0  0  0  0  0  0  0  0  0  0
    2.4056    0.0881    1.4903 H   0  0  0  0  0  0  0  0  0  0  0  0
    2.7419    1.2837   -1.2979 H   0  0  0  0  0  0  0  0  0  0  0  0
    3.7011    1.7217    0.1153 H   0  0  0  0  0  0  0  0  0  0  0  0
    1.9766    2.0716    0.0847 H   0  0  0  0  0  0  0  0  0  0  0  0
    1.0320   -1.6313    0.2757 H   0  0  0  0  0  0  0  0  0  0  0  0
    1.1321   -0.6454   -1.1840 H   0  0  0  0  0  0  0  0  0  0  0  0
   -0.0755    0.2896    1.4699 H   0  0  0  0  0  0  0  0  0  0  0  0
   -0.1386    1.1710   -0.0706 H   0  0  0  0  0  0  0  0  0  0  0  0
   -3.2072   -1.8357   -0.4648 H   0  0  0  0  0  0  0  0  0  0  0  0
   -3.7856   -0.5560   -1.5548 H   0  0  0  0  0  0  0  0  0  0  0  0
   -4.3930   -0.6165    0.0939 H   0  0  0  0  0  0  0  0  0  0  0  0
  1  2  1  0  0  0  0
  2  3  1  0  0  0  0
  2  4  1  0  0  0  0
  4  5  1  0  0  0  0
  5  6  1  0  0  0  0
  6  7  1  0  0  0  0
  7  8  2  0  0  0  0
  7  9  1  0  0  0  0
  1 10  1  0  0  0  0
  1 11  1  0  0  0  0
  1 12  1  0  0  0  0
  2 13  1  0  0  0  0
  3 14  1  0  0  0  0
  3 15  1  0  0  0  0
  3 16  1  0  0  0  0
  4 17  1  0  0  0  0
  4 18  1  0  0  0  0
  5 19  1  0  0  0  0
  5 20  1  0  0  0  0
  9 21  1  0  0  0  0
  9 22  1  0  0  0  0
  9 23  1  0  0  0  0
M  END
