 xtb: 6.7.1 (edcfbbe)
          04112516203D

 17 16  0     0  0            999 V2000
   -2.8196    0.9607    0.5145 C   0  0  0  0  0  0  0  0  0  0  0  0
   -2.3287   -0.3665   -0.0523 C   0  0  0  0  0  0  0  0  0  0  0  0
   -0.8506   -0.6320    0.2314 C   0  0  0  0  0  0  0  0  0  0  0  0
    0.0750    0.3593   -0.4916 C   0  0  0  0  0  0  0  0  0  0  0  0
    1.5016   -0.0417   -0.2472 C   0  0  0  0  0  0  0  0  0  0  0  0
    2.1833   -0.6889   -1.0151 O   0  0  0  0  0  0  0  0  0  0  0  0
    1.9467    0.3587    0.9331 O   0  0  0  0  0  0  0  0  0  0  0  0
   -2.3421    1.8001    0.0169 H   0  0  0  0  0  0  0  0  0  0  0  0
   -3.8936    1.0523    0.3739 H   0  0  0  0  0  0  0  0  0  0  0  0
   -2.6066    1.0211    1.5792 H   0  0  0  0  0  0  0  0  0  0  0  0
   -2.4993   -0.3891   -1.1303 H   0  0  0  0  0  0  0  0  0  0  0  0
   -2.9087   -1.1778    0.3919 H   0  0  0  0  0  0  0  0  0  0  0  0
   -0.6668   -0.5695    1.3056 H   0  0  0  0  0  0  0  0  0  0  0  0
   -0.6010   -1.6437   -0.0974 H   0  0  0  0  0  0  0  0  0  0  0  0
   -0.0777    1.3627   -0.0980 H   0  0  0  0  0  0  0  0  0  0  0  0
   -0.1203    0.3364   -1.5632 H   0  0  0  0  0  0  0  0  0  0  0  0
    2.8617    0.0682    1.1131 H   0  0  0  0  0  0  0  0  0  0  0  0
  1  2  1  0  0  0  0
  2  3  1  0  0  0  0
  3  4  1  0  0  0  0
  4  5  1  0  0  0  0
  5  6  2  0  0  0  0
  5  7  1  0  0  0  0
  1  8  1  0  0  0  0
  1  9  1  0  0  0  0
  1 10  1  0  0  0  0
  2 11  1  0  0  0  0
  2 12  1  0  0  0  0
  3 13  1  0  0  0  0
  3 14  1  0  0  0  0
  4 15  1  0  0  0  0
  4 16  1  0  0  0  0
  7 17  1  0  0  0  0
M  END
