 xtb: 6.7.1 (edcfbbe)
          04112516293D

 20 19  0     0  0            999 V2000
   -3.2009   -0.6425   -0.1963 C   0  0  0  0  0  0  0  0  0  0  0  0
   -2.0936   -0.2610    0.7797 C   0  0  0  0  0  0  0  0  0  0  0  0
   -1.2731    0.9428    0.3124 C   0  0  0  0  0  0  0  0  0  0  0  0
   -0.3779    0.6319   -0.8848 C   0  0  0  0  0  0  0  0  0  0  0  0
    0.5726   -0.3979   -0.5790 O   0  0  0  0  0  0  0  0  0  0  0  0
    1.7064   -0.0538    0.0212 C   0  0  0  0  0  0  0  0  0  0  0  0
    1.9979    1.0917    0.2988 O   0  0  0  0  0  0  0  0  0  0  0  0
    2.5627   -1.2514    0.3050 C   0  0  0  0  0  0  0  0  0  0  0  0
   -3.8527    0.2078   -0.3829 H   0  0  0  0  0  0  0  0  0  0  0  0
   -2.7891   -0.9785   -1.1438 H   0  0  0  0  0  0  0  0  0  0  0  0
   -3.7995   -1.4503    0.2167 H   0  0  0  0  0  0  0  0  0  0  0  0
   -2.5395   -0.0169    1.7457 H   0  0  0  0  0  0  0  0  0  0  0  0
   -1.4264   -1.1128    0.9259 H   0  0  0  0  0  0  0  0  0  0  0  0
   -1.9383    1.7599    0.0317 H   0  0  0  0  0  0  0  0  0  0  0  0
   -0.6364    1.2908    1.1295 H   0  0  0  0  0  0  0  0  0  0  0  0
   -0.9515    0.2409   -1.7244 H   0  0  0  0  0  0  0  0  0  0  0  0
    0.1668    1.5319   -1.1868 H   0  0  0  0  0  0  0  0  0  0  0  0
    2.4421   -1.9862   -0.4842 H   0  0  0  0  0  0  0  0  0  0  0  0
    2.2350   -1.6932    1.2437 H   0  0  0  0  0  0  0  0  0  0  0  0
    3.5988   -0.9447    0.4038 H   0  0  0  0  0  0  0  0  0  0  0  0
  1  2  1  0  0  0  0
  2  3  1  0  0  0  0
  3  4  1  0  0  0  0
  4  5  1  0  0  0  0
  5  6  1  0  0  0  0
  6  7  2  0  0  0  0
  6  8  1  0  0  0  0
  1  9  1  0  0  0  0
  1 10  1  0  0  0  0
  1 11  1  0  0  0  0
  2 12  1  0  0  0  0
  2 13  1  0  0  0  0
  3 14  1  0  0  0  0
  3 15  1  0  0  0  0
  4 16  1  0  0  0  0
  4 17  1  0  0  0  0
  8 18  1  0  0  0  0
  8 19  1  0  0  0  0
  8 20  1  0  0  0  0
M  END
