 xtb: 6.7.1 (edcfbbe)
          04112516013D

 20 19  0     0  0            999 V2000
   -2.4035   -1.2837   -0.0833 C   0  0  0  0  0  0  0  0  0  0  0  0
   -2.7067    0.2066    0.0129 C   0  0  0  0  0  0  0  0  0  0  0  0
   -1.5969    1.0030    0.7008 C   0  0  0  0  0  0  0  0  0  0  0  0
   -0.3011    1.0701   -0.0991 C   0  0  0  0  0  0  0  0  0  0  0  0
    0.4303   -0.1553    0.0548 O   0  0  0  0  0  0  0  0  0  0  0  0
    1.7404   -0.1362   -0.1443 C   0  0  0  0  0  0  0  0  0  0  0  0
    2.3536    0.8653   -0.4573 O   0  0  0  0  0  0  0  0  0  0  0  0
    2.3524   -1.4906    0.0534 C   0  0  0  0  0  0  0  0  0  0  0  0
   -2.2485   -1.7030    0.9079 H   0  0  0  0  0  0  0  0  0  0  0  0
   -3.2323   -1.8071   -0.5538 H   0  0  0  0  0  0  0  0  0  0  0  0
   -1.5064   -1.4575   -0.6703 H   0  0  0  0  0  0  0  0  0  0  0  0
   -2.8687    0.6114   -0.9883 H   0  0  0  0  0  0  0  0  0  0  0  0
   -3.6290    0.3463    0.5799 H   0  0  0  0  0  0  0  0  0  0  0  0
   -1.9388    2.0270    0.8545 H   0  0  0  0  0  0  0  0  0  0  0  0
   -1.3791    0.5648    1.6758 H   0  0  0  0  0  0  0  0  0  0  0  0
   -0.5005    1.2193   -1.1652 H   0  0  0  0  0  0  0  0  0  0  0  0
    0.3376    1.8893    0.2482 H   0  0  0  0  0  0  0  0  0  0  0  0
    1.6822   -2.1206    0.6280 H   0  0  0  0  0  0  0  0  0  0  0  0
    3.3135   -1.3847    0.5472 H   0  0  0  0  0  0  0  0  0  0  0  0
    2.5209   -1.9383   -0.9238 H   0  0  0  0  0  0  0  0  0  0  0  0
  1  2  1  0  0  0  0
  2  3  1  0  0  0  0
  3  4  1  0  0  0  0
  4  5  1  0  0  0  0
  5  6  1  0  0  0  0
  6  7  2  0  0  0  0
  6  8  1  0  0  0  0
  1  9  1  0  0  0  0
  1 10  1  0  0  0  0
  1 11  1  0  0  0  0
  2 12  1  0  0  0  0
  2 13  1  0  0  0  0
  3 14  1  0  0  0  0
  3 15  1  0  0  0  0
  4 16  1  0  0  0  0
  4 17  1  0  0  0  0
  8 18  1  0  0  0  0
  8 19  1  0  0  0  0
  8 20  1  0  0  0  0
M  END
