 xtb: 6.7.1 (edcfbbe)
          04112517153D

 20 19  0     0  0            999 V2000
   -3.3435    0.6868    0.5385 C   0  0  0  0  0  0  0  0  0  0  0  0
   -2.8112   -0.6220   -0.0348 C   0  0  0  0  0  0  0  0  0  0  0  0
   -1.4146   -0.4871   -0.6404 C   0  0  0  0  0  0  0  0  0  0  0  0
   -0.3454   -0.1677    0.4011 C   0  0  0  0  0  0  0  0  0  0  0  0
    1.0429   -0.2217   -0.1775 C   0  0  0  0  0  0  0  0  0  0  0  0
    1.3303   -0.5764   -1.3004 O   0  0  0  0  0  0  0  0  0  0  0  0
    1.9529    0.1677    0.7141 O   0  0  0  0  0  0  0  0  0  0  0  0
    3.3238    0.1521    0.3073 C   0  0  0  0  0  0  0  0  0  0  0  0
   -4.3708    0.5596    0.8705 H   0  0  0  0  0  0  0  0  0  0  0  0
   -2.7515    1.0119    1.3894 H   0  0  0  0  0  0  0  0  0  0  0  0
   -3.3223    1.4681   -0.2178 H   0  0  0  0  0  0  0  0  0  0  0  0
   -2.7933   -1.3824    0.7484 H   0  0  0  0  0  0  0  0  0  0  0  0
   -3.4904   -0.9682   -0.8160 H   0  0  0  0  0  0  0  0  0  0  0  0
   -1.4174    0.2945   -1.4025 H   0  0  0  0  0  0  0  0  0  0  0  0
   -1.1430   -1.4204   -1.1380 H   0  0  0  0  0  0  0  0  0  0  0  0
   -0.3846   -0.8875    1.2219 H   0  0  0  0  0  0  0  0  0  0  0  0
   -0.4864    0.8246    0.8301 H   0  0  0  0  0  0  0  0  0  0  0  0
    3.4813    0.8705   -0.4980 H   0  0  0  0  0  0  0  0  0  0  0  0
    3.5972   -0.8427   -0.0465 H   0  0  0  0  0  0  0  0  0  0  0  0
    3.8937    0.4247    1.1898 H   0  0  0  0  0  0  0  0  0  0  0  0
  1  2  1  0  0  0  0
  2  3  1  0  0  0  0
  3  4  1  0  0  0  0
  4  5  1  0  0  0  0
  5  6  2  0  0  0  0
  5  7  1  0  0  0  0
  7  8  1  0  0  0  0
  1  9  1  0  0  0  0
  1 10  1  0  0  0  0
  1 11  1  0  0  0  0
  2 12  1  0  0  0  0
  2 13  1  0  0  0  0
  3 14  1  0  0  0  0
  3 15  1  0  0  0  0
  4 16  1  0  0  0  0
  4 17  1  0  0  0  0
  8 18  1  0  0  0  0
  8 19  1  0  0  0  0
  8 20  1  0  0  0  0
M  END
