 xtb: 6.7.1 (edcfbbe)
          04112514203D

 23 22  0     0  0            999 V2000
    3.1951   -0.7985    0.3415 C   0  0  0  0  0  0  0  0  0  0  0  0
    1.9255   -0.4539   -0.4287 C   0  0  0  0  0  0  0  0  0  0  0  0
    1.0288    0.5066    0.3516 C   0  0  0  0  0  0  0  0  0  0  0  0
   -0.2702    0.8513   -0.3962 C   0  0  0  0  0  0  0  0  0  0  0  0
   -1.5416    0.3289    0.2839 C   0  0  0  0  0  0  0  0  0  0  0  0
   -2.7762    0.8841   -0.4255 C   0  0  0  0  0  0  0  0  0  0  0  0
   -1.5904   -1.1970    0.2921 C   0  0  0  0  0  0  0  0  0  0  0  0
    3.7596    0.1035    0.5679 H   0  0  0  0  0  0  0  0  0  0  0  0
    2.9507   -1.2923    1.2795 H   0  0  0  0  0  0  0  0  0  0  0  0
    3.8285   -1.4627   -0.2416 H   0  0  0  0  0  0  0  0  0  0  0  0
    1.3744   -1.3705   -0.6480 H   0  0  0  0  0  0  0  0  0  0  0  0
    2.1966    0.0065   -1.3818 H   0  0  0  0  0  0  0  0  0  0  0  0
    0.7913    0.0636    1.3209 H   0  0  0  0  0  0  0  0  0  0  0  0
    1.5937    1.4197    0.5505 H   0  0  0  0  0  0  0  0  0  0  0  0
   -0.3582    1.9355   -0.4894 H   0  0  0  0  0  0  0  0  0  0  0  0
   -0.2260    0.4444   -1.4088 H   0  0  0  0  0  0  0  0  0  0  0  0
   -1.5494    0.6853    1.3207 H   0  0  0  0  0  0  0  0  0  0  0  0
   -3.6850    0.5356    0.0593 H   0  0  0  0  0  0  0  0  0  0  0  0
   -2.7741    1.9716   -0.4090 H   0  0  0  0  0  0  0  0  0  0  0  0
   -2.7937    0.5569   -1.4630 H   0  0  0  0  0  0  0  0  0  0  0  0
   -2.4943   -1.5430    0.7888 H   0  0  0  0  0  0  0  0  0  0  0  0
   -0.7348   -1.6141    0.8161 H   0  0  0  0  0  0  0  0  0  0  0  0
   -1.5914   -1.5789   -0.7267 H   0  0  0  0  0  0  0  0  0  0  0  0
  1  2  1  0  0  0  0
  2  3  1  0  0  0  0
  3  4  1  0  0  0  0
  4  5  1  0  0  0  0
  5  6  1  0  0  0  0
  5  7  1  0  0  0  0
  1  8  1  0  0  0  0
  1  9  1  0  0  0  0
  1 10  1  0  0  0  0
  2 11  1  0  0  0  0
  2 12  1  0  0  0  0
  3 13  1  0  0  0  0
  3 14  1  0  0  0  0
  4 15  1  0  0  0  0
  4 16  1  0  0  0  0
  5 17  1  0  0  0  0
  6 18  1  0  0  0  0
  6 19  1  0  0  0  0
  6 20  1  0  0  0  0
  7 21  1  0  0  0  0
  7 22  1  0  0  0  0
  7 23  1  0  0  0  0
M  END
