 xtb: 6.7.1 (edcfbbe)
          04112516273D

 19 18  0     0  0            999 V2000
   -2.6458   -0.8630    0.0157 C   0  0  0  0  0  0  0  0  0  0  0  0
   -2.1206    0.4429   -0.5704 C   0  0  0  0  0  0  0  0  0  0  0  0
   -1.1556    1.1792    0.3616 C   0  0  0  0  0  0  0  0  0  0  0  0
    0.1268    0.4169    0.6975 C   0  0  0  0  0  0  0  0  0  0  0  0
    0.9983    0.1460   -0.5342 C   0  0  0  0  0  0  0  0  0  0  0  0
    2.2603   -0.4557   -0.1559 C   0  0  0  0  0  0  0  0  0  0  0  0
    3.2948   -0.9539    0.1824 C   0  0  0  0  0  0  0  0  0  0  0  0
   -3.0922   -0.6887    0.9924 H   0  0  0  0  0  0  0  0  0  0  0  0
   -1.8483   -1.5931    0.1273 H   0  0  0  0  0  0  0  0  0  0  0  0
   -3.4042   -1.2897   -0.6367 H   0  0  0  0  0  0  0  0  0  0  0  0
   -1.6355    0.2435   -1.5274 H   0  0  0  0  0  0  0  0  0  0  0  0
   -2.9670    1.1048   -0.7694 H   0  0  0  0  0  0  0  0  0  0  0  0
   -1.6760    1.4012    1.2965 H   0  0  0  0  0  0  0  0  0  0  0  0
   -0.8870    2.1333   -0.0994 H   0  0  0  0  0  0  0  0  0  0  0  0
   -0.1148   -0.5292    1.1842 H   0  0  0  0  0  0  0  0  0  0  0  0
    0.7055    1.0101    1.4101 H   0  0  0  0  0  0  0  0  0  0  0  0
    1.1976    1.0847   -1.0589 H   0  0  0  0  0  0  0  0  0  0  0  0
    0.4847   -0.5304   -1.2213 H   0  0  0  0  0  0  0  0  0  0  0  0
    4.2056   -1.3896    0.4658 H   0  0  0  0  0  0  0  0  0  0  0  0
  1  2  1  0  0  0  0
  2  3  1  0  0  0  0
  3  4  1  0  0  0  0
  4  5  1  0  0  0  0
  5  6  1  0  0  0  0
  6  7  3  0  0  0  0
  1  8  1  0  0  0  0
  1  9  1  0  0  0  0
  1 10  1  0  0  0  0
  2 11  1  0  0  0  0
  2 12  1  0  0  0  0
  3 13  1  0  0  0  0
  3 14  1  0  0  0  0
  4 15  1  0  0  0  0
  4 16  1  0  0  0  0
  5 17  1  0  0  0  0
  5 18  1  0  0  0  0
  7 19  1  0  0  0  0
M  END
