 xtb: 6.7.1 (edcfbbe)
          04112516113D

 17 16  0     0  0            999 V2000
   -3.0197    0.0244   -0.4501 C   0  0  0  0  0  0  0  0  0  0  0  0
   -2.1732    0.4952    0.7266 C   0  0  0  0  0  0  0  0  0  0  0  0
   -0.7689   -0.1099    0.7387 C   0  0  0  0  0  0  0  0  0  0  0  0
    0.0808    0.3501   -0.4581 C   0  0  0  0  0  0  0  0  0  0  0  0
    1.4850   -0.1676   -0.2872 C   0  0  0  0  0  0  0  0  0  0  0  0
    1.8808   -1.2020   -0.7760 O   0  0  0  0  0  0  0  0  0  0  0  0
    2.2976    0.5534    0.4829 O   0  0  0  0  0  0  0  0  0  0  0  0
   -2.6143    0.3793   -1.3937 H   0  0  0  0  0  0  0  0  0  0  0  0
   -3.0597   -1.0621   -0.4789 H   0  0  0  0  0  0  0  0  0  0  0  0
   -4.0347    0.4018   -0.3557 H   0  0  0  0  0  0  0  0  0  0  0  0
   -2.6708    0.2113    1.6558 H   0  0  0  0  0  0  0  0  0  0  0  0
   -2.1002    1.5842    0.7084 H   0  0  0  0  0  0  0  0  0  0  0  0
   -0.2716    0.1730    1.6689 H   0  0  0  0  0  0  0  0  0  0  0  0
   -0.8383   -1.1993    0.7210 H   0  0  0  0  0  0  0  0  0  0  0  0
    0.0754    1.4387   -0.5203 H   0  0  0  0  0  0  0  0  0  0  0  0
   -0.3238   -0.0684   -1.3784 H   0  0  0  0  0  0  0  0  0  0  0  0
    1.8975    1.3808    0.8078 H   0  0  0  0  0  0  0  0  0  0  0  0
  1  2  1  0  0  0  0
  2  3  1  0  0  0  0
  3  4  1  0  0  0  0
  4  5  1  0  0  0  0
  5  6  2  0  0  0  0
  5  7  1  0  0  0  0
  1  8  1  0  0  0  0
  1  9  1  0  0  0  0
  1 10  1  0  0  0  0
  2 11  1  0  0  0  0
  2 12  1  0  0  0  0
  3 13  1  0  0  0  0
  3 14  1  0  0  0  0
  4 15  1  0  0  0  0
  4 16  1  0  0  0  0
  7 17  1  0  0  0  0
M  END
