 xtb: 6.7.1 (edcfbbe)
          04112514083D

 16 15  0     0  0            999 V2000
   -2.9718   -0.3074    0.1448 C   0  0  0  0  0  0  0  0  0  0  0  0
   -1.7476    0.1069   -0.4282 O   0  0  0  0  0  0  0  0  0  0  0  0
   -0.6286   -0.2409    0.3574 C   0  0  0  0  0  0  0  0  0  0  0  0
    0.6279    0.2485   -0.3532 C   0  0  0  0  0  0  0  0  0  0  0  0
    1.7476   -0.1078    0.4277 O   0  0  0  0  0  0  0  0  0  0  0  0
    2.9723    0.3013   -0.1482 C   0  0  0  0  0  0  0  0  0  0  0  0
   -2.9994   -1.3960    0.2601 H   0  0  0  0  0  0  0  0  0  0  0  0
   -3.7496    0.0122   -0.5435 H   0  0  0  0  0  0  0  0  0  0  0  0
   -3.1229    0.1607    1.1231 H   0  0  0  0  0  0  0  0  0  0  0  0
   -0.6924    0.2243    1.3514 H   0  0  0  0  0  0  0  0  0  0  0  0
   -0.5719   -1.3306    0.4910 H   0  0  0  0  0  0  0  0  0  0  0  0
    0.5755    1.3390   -0.4810 H   0  0  0  0  0  0  0  0  0  0  0  0
    0.6874   -0.2118   -1.3498 H   0  0  0  0  0  0  0  0  0  0  0  0
    3.0067    1.3902   -0.2588 H   0  0  0  0  0  0  0  0  0  0  0  0
    3.1164   -0.1634   -1.1291 H   0  0  0  0  0  0  0  0  0  0  0  0
    3.7508   -0.0266    0.5354 H   0  0  0  0  0  0  0  0  0  0  0  0
  1  2  1  0  0  0  0
  2  3  1  0  0  0  0
  3  4  1  0  0  0  0
  4  5  1  0  0  0  0
  5  6  1  0  0  0  0
  1  7  1  0  0  0  0
  1  8  1  0  0  0  0
  1  9  1  0  0  0  0
  3 10  1  0  0  0  0
  3 11  1  0  0  0  0
  4 12  1  0  0  0  0
  4 13  1  0  0  0  0
  6 14  1  0  0  0  0
  6 15  1  0  0  0  0
  6 16  1  0  0  0  0
M  END
