 xtb: 6.7.1 (edcfbbe)
          04112516013D

 20 19  0     0  0            999 V2000
   -3.2306   -0.6223   -0.1860 C   0  0  0  0  0  0  0  0  0  0  0  0
   -2.1045   -0.2730    0.7805 C   0  0  0  0  0  0  0  0  0  0  0  0
   -1.2742    0.9268    0.3198 C   0  0  0  0  0  0  0  0  0  0  0  0
   -0.3773    0.6109   -0.8746 C   0  0  0  0  0  0  0  0  0  0  0  0
    0.5772   -0.4116   -0.5564 O   0  0  0  0  0  0  0  0  0  0  0  0
    1.7257   -0.0531    0.0054 C   0  0  0  0  0  0  0  0  0  0  0  0
    2.0272    1.0997    0.2398 O   0  0  0  0  0  0  0  0  0  0  0  0
    2.5880   -1.2426    0.3051 C   0  0  0  0  0  0  0  0  0  0  0  0
   -3.8795    0.2367   -0.3394 H   0  0  0  0  0  0  0  0  0  0  0  0
   -2.8375   -0.9357   -1.1491 H   0  0  0  0  0  0  0  0  0  0  0  0
   -3.8278   -1.4367    0.2159 H   0  0  0  0  0  0  0  0  0  0  0  0
   -2.5341   -0.0394    1.7564 H   0  0  0  0  0  0  0  0  0  0  0  0
   -1.4466   -1.1356    0.9032 H   0  0  0  0  0  0  0  0  0  0  0  0
   -1.9327    1.7493    0.0393 H   0  0  0  0  0  0  0  0  0  0  0  0
   -0.6371    1.2684    1.1393 H   0  0  0  0  0  0  0  0  0  0  0  0
   -0.9488    0.2098   -1.7111 H   0  0  0  0  0  0  0  0  0  0  0  0
    0.1644    1.5101   -1.1843 H   0  0  0  0  0  0  0  0  0  0  0  0
    2.5471   -1.4368    1.3748 H   0  0  0  0  0  0  0  0  0  0  0  0
    3.6176   -1.0181    0.0430 H   0  0  0  0  0  0  0  0  0  0  0  0
    2.2252   -2.1094   -0.2363 H   0  0  0  0  0  0  0  0  0  0  0  0
  1  2  1  0  0  0  0
  2  3  1  0  0  0  0
  3  4  1  0  0  0  0
  4  5  1  0  0  0  0
  5  6  1  0  0  0  0
  6  7  2  0  0  0  0
  6  8  1  0  0  0  0
  1  9  1  0  0  0  0
  1 10  1  0  0  0  0
  1 11  1  0  0  0  0
  2 12  1  0  0  0  0
  2 13  1  0  0  0  0
  3 14  1  0  0  0  0
  3 15  1  0  0  0  0
  4 16  1  0  0  0  0
  4 17  1  0  0  0  0
  8 18  1  0  0  0  0
  8 19  1  0  0  0  0
  8 20  1  0  0  0  0
M  END
