 xtb: 6.7.1 (edcfbbe)
          04112516113D

 17 16  0     0  0            999 V2000
   -3.1054   -0.4124    0.2437 C   0  0  0  0  0  0  0  0  0  0  0  0
   -1.6763    0.0094    0.5629 C   0  0  0  0  0  0  0  0  0  0  0  0
   -0.9726    0.5861   -0.6642 C   0  0  0  0  0  0  0  0  0  0  0  0
    0.4500    1.0422   -0.3465 C   0  0  0  0  0  0  0  0  0  0  0  0
    1.3806   -0.1091   -0.0763 C   0  0  0  0  0  0  0  0  0  0  0  0
    1.2582   -1.2324   -0.5151 O   0  0  0  0  0  0  0  0  0  0  0  0
    2.3989    0.2427    0.6971 O   0  0  0  0  0  0  0  0  0  0  0  0
   -3.5887   -0.8220    1.1269 H   0  0  0  0  0  0  0  0  0  0  0  0
   -3.6849    0.4400   -0.1031 H   0  0  0  0  0  0  0  0  0  0  0  0
   -3.1111   -1.1717   -0.5348 H   0  0  0  0  0  0  0  0  0  0  0  0
   -1.1140   -0.8556    0.9225 H   0  0  0  0  0  0  0  0  0  0  0  0
   -1.6878    0.7569    1.3594 H   0  0  0  0  0  0  0  0  0  0  0  0
   -0.9315   -0.1757   -1.4453 H   0  0  0  0  0  0  0  0  0  0  0  0
   -1.5430    1.4354   -1.0421 H   0  0  0  0  0  0  0  0  0  0  0  0
    0.4740    1.7117    0.5137 H   0  0  0  0  0  0  0  0  0  0  0  0
    0.8676    1.5801   -1.2013 H   0  0  0  0  0  0  0  0  0  0  0  0
    3.0249   -0.4903    0.8553 H   0  0  0  0  0  0  0  0  0  0  0  0
  1  2  1  0  0  0  0
  2  3  1  0  0  0  0
  3  4  1  0  0  0  0
  4  5  1  0  0  0  0
  5  6  2  0  0  0  0
  5  7  1  0  0  0  0
  1  8  1  0  0  0  0
  1  9  1  0  0  0  0
  1 10  1  0  0  0  0
  2 11  1  0  0  0  0
  2 12  1  0  0  0  0
  3 13  1  0  0  0  0
  3 14  1  0  0  0  0
  4 15  1  0  0  0  0
  4 16  1  0  0  0  0
  7 17  1  0  0  0  0
M  END
