 xtb: 6.7.1 (edcfbbe)
          04112516293D

 20 19  0     0  0            999 V2000
   -3.4027   -0.2503   -0.7624 C   0  0  0  0  0  0  0  0  0  0  0  0
   -2.8432    0.4899    0.4477 C   0  0  0  0  0  0  0  0  0  0  0  0
   -1.4969   -0.0597    0.9184 C   0  0  0  0  0  0  0  0  0  0  0  0
   -0.3818    0.1841   -0.0886 C   0  0  0  0  0  0  0  0  0  0  0  0
    0.8538   -0.2356    0.5087 O   0  0  0  0  0  0  0  0  0  0  0  0
    1.9634   -0.1001   -0.2076 C   0  0  0  0  0  0  0  0  0  0  0  0
    1.9713    0.3483   -1.3363 O   0  0  0  0  0  0  0  0  0  0  0  0
    3.1739   -0.5489    0.5531 C   0  0  0  0  0  0  0  0  0  0  0  0
   -3.4733   -1.3157   -0.5572 H   0  0  0  0  0  0  0  0  0  0  0  0
   -4.3967    0.1196   -1.0003 H   0  0  0  0  0  0  0  0  0  0  0  0
   -2.7712   -0.1071   -1.6351 H   0  0  0  0  0  0  0  0  0  0  0  0
   -2.7367    1.5496    0.2086 H   0  0  0  0  0  0  0  0  0  0  0  0
   -3.5520    0.4043    1.2728 H   0  0  0  0  0  0  0  0  0  0  0  0
   -1.2132    0.4231    1.8549 H   0  0  0  0  0  0  0  0  0  0  0  0
   -1.5762   -1.1317    1.1036 H   0  0  0  0  0  0  0  0  0  0  0  0
   -0.5271   -0.3830   -1.0129 H   0  0  0  0  0  0  0  0  0  0  0  0
   -0.3021    1.2454   -0.3488 H   0  0  0  0  0  0  0  0  0  0  0  0
    3.5113    0.2758    1.1774 H   0  0  0  0  0  0  0  0  0  0  0  0
    3.9654   -0.8113   -0.1413 H   0  0  0  0  0  0  0  0  0  0  0  0
    2.9167   -1.3855    1.1942 H   0  0  0  0  0  0  0  0  0  0  0  0
  1  2  1  0  0  0  0
  2  3  1  0  0  0  0
  3  4  1  0  0  0  0
  4  5  1  0  0  0  0
  5  6  1  0  0  0  0
  6  7  2  0  0  0  0
  6  8  1  0  0  0  0
  1  9  1  0  0  0  0
  1 10  1  0  0  0  0
  1 11  1  0  0  0  0
  2 12  1  0  0  0  0
  2 13  1  0  0  0  0
  3 14  1  0  0  0  0
  3 15  1  0  0  0  0
  4 16  1  0  0  0  0
  4 17  1  0  0  0  0
  8 18  1  0  0  0  0
  8 19  1  0  0  0  0
  8 20  1  0  0  0  0
M  END
