 xtb: 6.7.1 (edcfbbe)
          04112516113D

 20 19  0     0  0            999 V2000
    3.9159    0.1450   -0.4902 C   0  0  0  0  0  0  0  0  0  0  0  0
    2.5060   -0.2335   -0.1644 C   0  0  0  0  0  0  0  0  0  0  0  0
    2.0276   -1.3401   -0.2835 O   0  0  0  0  0  0  0  0  0  0  0  0
    1.8110    0.8181    0.2820 O   0  0  0  0  0  0  0  0  0  0  0  0
    0.4421    0.6301    0.6267 C   0  0  0  0  0  0  0  0  0  0  0  0
   -0.4427    0.6319   -0.6259 C   0  0  0  0  0  0  0  0  0  0  0  0
   -1.8117    0.8183   -0.2812 O   0  0  0  0  0  0  0  0  0  0  0  0
   -2.5059   -0.2345    0.1637 C   0  0  0  0  0  0  0  0  0  0  0  0
   -2.0266   -1.3408    0.2814 O   0  0  0  0  0  0  0  0  0  0  0  0
   -3.9157    0.1428    0.4912 C   0  0  0  0  0  0  0  0  0  0  0  0
    4.1528    1.1063   -0.0483 H   0  0  0  0  0  0  0  0  0  0  0  0
    4.0142    0.2060   -1.5719 H   0  0  0  0  0  0  0  0  0  0  0  0
    4.5898   -0.6291   -0.1356 H   0  0  0  0  0  0  0  0  0  0  0  0
    0.3209   -0.3163    1.1642 H   0  0  0  0  0  0  0  0  0  0  0  0
    0.1849    1.4746    1.2678 H   0  0  0  0  0  0  0  0  0  0  0  0
   -0.3210   -0.3129   -1.1661 H   0  0  0  0  0  0  0  0  0  0  0  0
   -0.1857    1.4783   -1.2646 H   0  0  0  0  0  0  0  0  0  0  0  0
   -4.0042    0.2349    1.5717 H   0  0  0  0  0  0  0  0  0  0  0  0
   -4.5873   -0.6455    0.1649 H   0  0  0  0  0  0  0  0  0  0  0  0
   -4.1633    1.0902    0.0256 H   0  0  0  0  0  0  0  0  0  0  0  0
  1  2  1  0  0  0  0
  2  3  2  0  0  0  0
  2  4  1  0  0  0  0
  4  5  1  0  0  0  0
  5  6  1  0  0  0  0
  6  7  1  0  0  0  0
  7  8  1  0  0  0  0
  8  9  2  0  0  0  0
  8 10  1  0  0  0  0
  1 11  1  0  0  0  0
  1 12  1  0  0  0  0
  1 13  1  0  0  0  0
  5 14  1  0  0  0  0
  5 15  1  0  0  0  0
  6 16  1  0  0  0  0
  6 17  1  0  0  0  0
 10 18  1  0  0  0  0
 10 19  1  0  0  0  0
 10 20  1  0  0  0  0
M  END
