 xtb: 6.7.1 (edcfbbe)
          04112514233D

 23 22  0     0  0            999 V2000
    2.6878    0.2571   -0.9967 C   0  0  0  0  0  0  0  0  0  0  0  0
    2.1205    0.1457    0.4175 C   0  0  0  0  0  0  0  0  0  0  0  0
    1.2727    1.3724    0.7477 C   0  0  0  0  0  0  0  0  0  0  0  0
    1.3527   -1.1692    0.6235 C   0  0  0  0  0  0  0  0  0  0  0  0
    0.0728   -1.3299   -0.1929 C   0  0  0  0  0  0  0  0  0  0  0  0
   -1.0253   -0.6772    0.4632 O   0  0  0  0  0  0  0  0  0  0  0  0
   -1.7913    0.1599   -0.2209 C   0  0  0  0  0  0  0  0  0  0  0  0
   -1.6267    0.4229   -1.3961 O   0  0  0  0  0  0  0  0  0  0  0  0
   -2.8792    0.7316    0.6390 C   0  0  0  0  0  0  0  0  0  0  0  0
    1.8910    0.3607   -1.7300 H   0  0  0  0  0  0  0  0  0  0  0  0
    3.2765   -0.6221   -1.2461 H   0  0  0  0  0  0  0  0  0  0  0  0
    3.3268    1.1332   -1.0739 H   0  0  0  0  0  0  0  0  0  0  0  0
    2.9640    0.1204    1.1170 H   0  0  0  0  0  0  0  0  0  0  0  0
    1.8922    2.2662    0.7532 H   0  0  0  0  0  0  0  0  0  0  0  0
    0.8085    1.2681    1.7257 H   0  0  0  0  0  0  0  0  0  0  0  0
    0.4911    1.5156    0.0042 H   0  0  0  0  0  0  0  0  0  0  0  0
    1.0839   -1.2669    1.6768 H   0  0  0  0  0  0  0  0  0  0  0  0
    2.0141   -1.9970    0.3651 H   0  0  0  0  0  0  0  0  0  0  0  0
    0.1705   -0.9249   -1.2031 H   0  0  0  0  0  0  0  0  0  0  0  0
   -0.1981   -2.3874   -0.2570 H   0  0  0  0  0  0  0  0  0  0  0  0
   -3.4159    1.4965    0.0879 H   0  0  0  0  0  0  0  0  0  0  0  0
   -2.4449    1.1445    1.5448 H   0  0  0  0  0  0  0  0  0  0  0  0
   -3.5593   -0.0674    0.9229 H   0  0  0  0  0  0  0  0  0  0  0  0
  1  2  1  0  0  0  0
  2  3  1  0  0  0  0
  2  4  1  0  0  0  0
  4  5  1  0  0  0  0
  5  6  1  0  0  0  0
  6  7  1  0  0  0  0
  7  8  2  0  0  0  0
  7  9  1  0  0  0  0
  1 10  1  0  0  0  0
  1 11  1  0  0  0  0
  1 12  1  0  0  0  0
  2 13  1  0  0  0  0
  3 14  1  0  0  0  0
  3 15  1  0  0  0  0
  3 16  1  0  0  0  0
  4 17  1  0  0  0  0
  4 18  1  0  0  0  0
  5 19  1  0  0  0  0
  5 20  1  0  0  0  0
  9 21  1  0  0  0  0
  9 22  1  0  0  0  0
  9 23  1  0  0  0  0
M  END
