 xtb: 6.7.1 (edcfbbe)
          04112517193D

 23 23  0     0  0            999 V2000
   -3.8329   -0.5491   -0.1734 C   0  0  0  0  0  0  0  0  0  0  0  0
   -2.8068    0.4242   -0.2701 O   0  0  0  0  0  0  0  0  0  0  0  0
   -1.5109    0.0136   -0.1720 C   0  0  0  0  0  0  0  0  0  0  0  0
   -1.0945   -1.2834    0.0155 C   0  0  0  0  0  0  0  0  0  0  0  0
    0.2719   -1.5821    0.1010 C   0  0  0  0  0  0  0  0  0  0  0  0
    1.1936   -0.5420   -0.0075 C   0  0  0  0  0  0  0  0  0  0  0  0
    0.7979    0.7882   -0.1987 C   0  0  0  0  0  0  0  0  0  0  0  0
   -0.5735    1.0668   -0.2817 C   0  0  0  0  0  0  0  0  0  0  0  0
   -1.0315    2.3230   -0.4652 O   0  0  0  0  0  0  0  0  0  0  0  0
    1.8148    1.6800   -0.2842 O   0  0  0  0  0  0  0  0  0  0  0  0
    1.5681    3.0663   -0.4777 C   0  0  0  0  0  0  0  0  0  0  0  0
    2.8932   -0.8338    0.0885 Cl  0  0  0  0  0  0  0  0  0  0  0  0
    0.6720   -2.9659    0.2995 C   0  0  0  0  0  0  0  0  0  0  0  0
   -0.0986   -3.9018    0.3995 O   0  0  0  0  0  0  0  0  0  0  0  0
   -4.7616    0.0064   -0.2782 H   0  0  0  0  0  0  0  0  0  0  0  0
   -3.8063   -1.0498    0.7963 H   0  0  0  0  0  0  0  0  0  0  0  0
   -3.7483   -1.2868   -0.9736 H   0  0  0  0  0  0  0  0  0  0  0  0
   -1.7829   -2.1076    0.1027 H   0  0  0  0  0  0  0  0  0  0  0  0
   -2.0059    2.3072   -0.4955 H   0  0  0  0  0  0  0  0  0  0  0  0
    1.0498    3.2483   -1.4190 H   0  0  0  0  0  0  0  0  0  0  0  0
    2.5587    3.5151   -0.5064 H   0  0  0  0  0  0  0  0  0  0  0  0
    0.9937    3.4848    0.3486 H   0  0  0  0  0  0  0  0  0  0  0  0
    1.7588   -3.1331    0.3578 H   0  0  0  0  0  0  0  0  0  0  0  0
  1  2  1  0  0  0  0
  2  3  1  0  0  0  0
  3  4  4  0  0  0  0
  4  5  4  0  0  0  0
  5  6  4  0  0  0  0
  6  7  4  0  0  0  0
  3  8  4  0  0  0  0
  7  8  4  0  0  0  0
  8  9  1  0  0  0  0
  7 10  1  0  0  0  0
 10 11  1  0  0  0  0
  6 12  1  0  0  0  0
  5 13  1  0  0  0  0
 13 14  2  0  0  0  0
  1 15  1  0  0  0  0
  1 16  1  0  0  0  0
  1 17  1  0  0  0  0
  4 18  1  0  0  0  0
  9 19  1  0  0  0  0
 11 20  1  0  0  0  0
 11 21  1  0  0  0  0
 11 22  1  0  0  0  0
 13 23  1  0  0  0  0
M  END
