 xtb: 6.7.1 (edcfbbe)
          04112516113D

 17 16  0     0  0            999 V2000
   -3.4420   -0.2202   -0.0534 C   0  0  0  0  0  0  0  0  0  0  0  0
   -2.1939    0.5639    0.3328 C   0  0  0  0  0  0  0  0  0  0  0  0
   -0.9205   -0.1735   -0.0747 C   0  0  0  0  0  0  0  0  0  0  0  0
    0.3356    0.6066    0.3066 C   0  0  0  0  0  0  0  0  0  0  0  0
    1.5969   -0.1194   -0.0895 C   0  0  0  0  0  0  0  0  0  0  0  0
    1.6206   -1.1975   -0.6360 O   0  0  0  0  0  0  0  0  0  0  0  0
    2.7429    0.5006    0.1996 O   0  0  0  0  0  0  0  0  0  0  0  0
   -3.4459   -1.1930    0.4329 H   0  0  0  0  0  0  0  0  0  0  0  0
   -4.3388    0.3174    0.2438 H   0  0  0  0  0  0  0  0  0  0  0  0
   -3.4748   -0.3778   -1.1289 H   0  0  0  0  0  0  0  0  0  0  0  0
   -2.1892    0.7257    1.4126 H   0  0  0  0  0  0  0  0  0  0  0  0
   -2.2176    1.5416   -0.1528 H   0  0  0  0  0  0  0  0  0  0  0  0
   -0.8901   -1.1543    0.4041 H   0  0  0  0  0  0  0  0  0  0  0  0
   -0.9200   -0.3454   -1.1529 H   0  0  0  0  0  0  0  0  0  0  0  0
    0.3570    0.7693    1.3870 H   0  0  0  0  0  0  0  0  0  0  0  0
    0.3296    1.5826   -0.1847 H   0  0  0  0  0  0  0  0  0  0  0  0
    2.6270    1.3629    0.6390 H   0  0  0  0  0  0  0  0  0  0  0  0
  1  2  1  0  0  0  0
  2  3  1  0  0  0  0
  3  4  1  0  0  0  0
  4  5  1  0  0  0  0
  5  6  2  0  0  0  0
  5  7  1  0  0  0  0
  1  8  1  0  0  0  0
  1  9  1  0  0  0  0
  1 10  1  0  0  0  0
  2 11  1  0  0  0  0
  2 12  1  0  0  0  0
  3 13  1  0  0  0  0
  3 14  1  0  0  0  0
  4 15  1  0  0  0  0
  4 16  1  0  0  0  0
  7 17  1  0  0  0  0
M  END
