 xtb: 6.7.1 (edcfbbe)
          04112514203D

 23 22  0     0  0            999 V2000
    2.2234    0.0662    1.1571 C   0  0  0  0  0  0  0  0  0  0  0  0
    2.1681   -0.1809   -0.3470 C   0  0  0  0  0  0  0  0  0  0  0  0
    0.9098   -0.9062   -0.8366 C   0  0  0  0  0  0  0  0  0  0  0  0
   -0.3252   -0.0275   -1.0616 C   0  0  0  0  0  0  0  0  0  0  0  0
   -1.0840    0.4541    0.1811 C   0  0  0  0  0  0  0  0  0  0  0  0
   -2.2633    1.3232   -0.2580 C   0  0  0  0  0  0  0  0  0  0  0  0
   -1.5894   -0.7088    1.0314 C   0  0  0  0  0  0  0  0  0  0  0  0
    1.4799    0.7916    1.4722 H   0  0  0  0  0  0  0  0  0  0  0  0
    2.0526   -0.8597    1.7019 H   0  0  0  0  0  0  0  0  0  0  0  0
    3.2035    0.4487    1.4344 H   0  0  0  0  0  0  0  0  0  0  0  0
    3.0324   -0.7939   -0.6162 H   0  0  0  0  0  0  0  0  0  0  0  0
    2.2663    0.7694   -0.8763 H   0  0  0  0  0  0  0  0  0  0  0  0
    1.1501   -1.3601   -1.8019 H   0  0  0  0  0  0  0  0  0  0  0  0
    0.6719   -1.7211   -0.1522 H   0  0  0  0  0  0  0  0  0  0  0  0
   -0.0230    0.8477   -1.6430 H   0  0  0  0  0  0  0  0  0  0  0  0
   -1.0297   -0.5958   -1.6761 H   0  0  0  0  0  0  0  0  0  0  0  0
   -0.4224    1.0737    0.7920 H   0  0  0  0  0  0  0  0  0  0  0  0
   -2.8007    1.7031    0.6080 H   0  0  0  0  0  0  0  0  0  0  0  0
   -1.9194    2.1708   -0.8466 H   0  0  0  0  0  0  0  0  0  0  0  0
   -2.9565    0.7435   -0.8642 H   0  0  0  0  0  0  0  0  0  0  0  0
   -2.1979   -0.3368    1.8527 H   0  0  0  0  0  0  0  0  0  0  0  0
   -0.7645   -1.2744    1.4552 H   0  0  0  0  0  0  0  0  0  0  0  0
   -2.1984   -1.3804    0.4296 H   0  0  0  0  0  0  0  0  0  0  0  0
  1  2  1  0  0  0  0
  2  3  1  0  0  0  0
  3  4  1  0  0  0  0
  4  5  1  0  0  0  0
  5  6  1  0  0  0  0
  5  7  1  0  0  0  0
  1  8  1  0  0  0  0
  1  9  1  0  0  0  0
  1 10  1  0  0  0  0
  2 11  1  0  0  0  0
  2 12  1  0  0  0  0
  3 13  1  0  0  0  0
  3 14  1  0  0  0  0
  4 15  1  0  0  0  0
  4 16  1  0  0  0  0
  5 17  1  0  0  0  0
  6 18  1  0  0  0  0
  6 19  1  0  0  0  0
  6 20  1  0  0  0  0
  7 21  1  0  0  0  0
  7 22  1  0  0  0  0
  7 23  1  0  0  0  0
M  END
