 xtb: 6.7.1 (edcfbbe)
          04112514233D

 23 22  0     0  0            999 V2000
    3.0753   -0.7069    0.3726 C   0  0  0  0  0  0  0  0  0  0  0  0
    2.1419    0.4714    0.0997 C   0  0  0  0  0  0  0  0  0  0  0  0
    1.6967    0.4737   -1.3607 C   0  0  0  0  0  0  0  0  0  0  0  0
    0.9515    0.4957    1.0703 C   0  0  0  0  0  0  0  0  0  0  0  0
   -0.0028   -0.6947    0.9866 C   0  0  0  0  0  0  0  0  0  0  0  0
   -0.8146   -0.6732   -0.1956 O   0  0  0  0  0  0  0  0  0  0  0  0
   -1.9258    0.0517   -0.1857 C   0  0  0  0  0  0  0  0  0  0  0  0
   -2.3007    0.6939    0.7748 O   0  0  0  0  0  0  0  0  0  0  0  0
   -2.6622   -0.0493   -1.4884 C   0  0  0  0  0  0  0  0  0  0  0  0
    3.3523   -0.7422    1.4232 H   0  0  0  0  0  0  0  0  0  0  0  0
    3.9821   -0.6056   -0.2184 H   0  0  0  0  0  0  0  0  0  0  0  0
    2.6042   -1.6485    0.1036 H   0  0  0  0  0  0  0  0  0  0  0  0
    2.7032    1.3950    0.2847 H   0  0  0  0  0  0  0  0  0  0  0  0
    1.0359    1.3154   -1.5582 H   0  0  0  0  0  0  0  0  0  0  0  0
    1.1673   -0.4442   -1.6014 H   0  0  0  0  0  0  0  0  0  0  0  0
    2.5613    0.5555   -2.0153 H   0  0  0  0  0  0  0  0  0  0  0  0
    0.3689    1.4059    0.9069 H   0  0  0  0  0  0  0  0  0  0  0  0
    1.3345    0.5290    2.0915 H   0  0  0  0  0  0  0  0  0  0  0  0
    0.5347   -1.6410    0.9415 H   0  0  0  0  0  0  0  0  0  0  0  0
   -0.6678   -0.6833    1.8562 H   0  0  0  0  0  0  0  0  0  0  0  0
   -1.9623   -0.2258   -2.2982 H   0  0  0  0  0  0  0  0  0  0  0  0
   -3.2367    0.8565   -1.6538 H   0  0  0  0  0  0  0  0  0  0  0  0
   -3.3497   -0.8905   -1.4282 H   0  0  0  0  0  0  0  0  0  0  0  0
  1  2  1  0  0  0  0
  2  3  1  0  0  0  0
  2  4  1  0  0  0  0
  4  5  1  0  0  0  0
  5  6  1  0  0  0  0
  6  7  1  0  0  0  0
  7  8  2  0  0  0  0
  7  9  1  0  0  0  0
  1 10  1  0  0  0  0
  1 11  1  0  0  0  0
  1 12  1  0  0  0  0
  2 13  1  0  0  0  0
  3 14  1  0  0  0  0
  3 15  1  0  0  0  0
  3 16  1  0  0  0  0
  4 17  1  0  0  0  0
  4 18  1  0  0  0  0
  5 19  1  0  0  0  0
  5 20  1  0  0  0  0
  9 21  1  0  0  0  0
  9 22  1  0  0  0  0
  9 23  1  0  0  0  0
M  END
