 xtb: 6.7.1 (edcfbbe)
          04112514233D

 18 17  0     0  0            999 V2000
    1.8302    1.1217   -0.0810 C   0  0  0  0  0  0  0  0  0  0  0  0
    1.6920   -0.3894   -0.2343 C   0  0  0  0  0  0  0  0  0  0  0  0
    0.5718   -0.9791    0.6296 C   0  0  0  0  0  0  0  0  0  0  0  0
   -0.7929   -1.0567   -0.0736 C   0  0  0  0  0  0  0  0  0  0  0  0
   -1.3244    0.2803   -0.4847 C   0  0  0  0  0  0  0  0  0  0  0  0
   -2.2082    0.9715    0.2115 C   0  0  0  0  0  0  0  0  0  0  0  0
    2.6086    1.5000   -0.7399 H   0  0  0  0  0  0  0  0  0  0  0  0
    2.0977    1.3731    0.9433 H   0  0  0  0  0  0  0  0  0  0  0  0
    0.8979    1.6254   -0.3204 H   0  0  0  0  0  0  0  0  0  0  0  0
    1.5120   -0.6379   -1.2821 H   0  0  0  0  0  0  0  0  0  0  0  0
    2.6407   -0.8503    0.0504 H   0  0  0  0  0  0  0  0  0  0  0  0
    0.8433   -1.9952    0.9242 H   0  0  0  0  0  0  0  0  0  0  0  0
    0.4699   -0.3866    1.5409 H   0  0  0  0  0  0  0  0  0  0  0  0
   -0.6953   -1.6928   -0.9563 H   0  0  0  0  0  0  0  0  0  0  0  0
   -1.4996   -1.5289    0.6124 H   0  0  0  0  0  0  0  0  0  0  0  0
   -0.9385    0.6773   -1.4143 H   0  0  0  0  0  0  0  0  0  0  0  0
   -2.5625    1.9368   -0.1084 H   0  0  0  0  0  0  0  0  0  0  0  0
   -2.6155    0.5972    1.1367 H   0  0  0  0  0  0  0  0  0  0  0  0
  1  2  1  0  0  0  0
  2  3  1  0  0  0  0
  3  4  1  0  0  0  0
  4  5  1  0  0  0  0
  5  6  2  0  0  0  0
  1  7  1  0  0  0  0
  1  8  1  0  0  0  0
  1  9  1  0  0  0  0
  2 10  1  0  0  0  0
  2 11  1  0  0  0  0
  3 12  1  0  0  0  0
  3 13  1  0  0  0  0
  4 14  1  0  0  0  0
  4 15  1  0  0  0  0
  5 16  1  0  0  0  0
  6 17  1  0  0  0  0
  6 18  1  0  0  0  0
M  END
