 xtb: 6.7.1 (edcfbbe)
          04112516113D

 17 16  0     0  0            999 V2000
   -3.4564   -0.7953    0.7302 C   0  0  0  0  0  0  0  0  0  0  0  0
   -3.1555    0.1948   -0.3896 C   0  0  0  0  0  0  0  0  0  0  0  0
   -1.6602    0.3620   -0.6603 C   0  0  0  0  0  0  0  0  0  0  0  0
   -0.9141    1.0280    0.4941 C   0  0  0  0  0  0  0  0  0  0  0  0
    0.5396    1.3020    0.1661 C   0  0  0  0  0  0  0  0  0  0  0  0
    1.5676   -0.3686   -0.0697 Br  0  0  0  0  0  0  0  0  0  0  0  0
   -4.5284   -0.9574    0.8091 H   0  0  0  0  0  0  0  0  0  0  0  0
   -3.1008   -0.4267    1.6888 H   0  0  0  0  0  0  0  0  0  0  0  0
   -2.9791   -1.7520    0.5294 H   0  0  0  0  0  0  0  0  0  0  0  0
   -3.6311   -0.1573   -1.3073 H   0  0  0  0  0  0  0  0  0  0  0  0
   -3.5897    1.1663   -0.1438 H   0  0  0  0  0  0  0  0  0  0  0  0
   -1.2212   -0.6192   -0.8568 H   0  0  0  0  0  0  0  0  0  0  0  0
   -1.5320    0.9697   -1.5600 H   0  0  0  0  0  0  0  0  0  0  0  0
   -1.3809    1.9899    0.7217 H   0  0  0  0  0  0  0  0  0  0  0  0
   -0.9719    0.4035    1.3868 H   0  0  0  0  0  0  0  0  0  0  0  0
    1.0453    1.8342    0.9695 H   0  0  0  0  0  0  0  0  0  0  0  0
    0.6517    1.8427   -0.7722 H   0  0  0  0  0  0  0  0  0  0  0  0
  1  2  1  0  0  0  0
  2  3  1  0  0  0  0
  3  4  1  0  0  0  0
  4  5  1  0  0  0  0
  5  6  1  0  0  0  0
  1  7  1  0  0  0  0
  1  8  1  0  0  0  0
  1  9  1  0  0  0  0
  2 10  1  0  0  0  0
  2 11  1  0  0  0  0
  3 12  1  0  0  0  0
  3 13  1  0  0  0  0
  4 14  1  0  0  0  0
  4 15  1  0  0  0  0
  5 16  1  0  0  0  0
  5 17  1  0  0  0  0
M  END
