 xtb: 6.7.1 (edcfbbe)
          04112514233D

 18 17  0     0  0            999 V2000
    2.0280    0.9220   -0.3801 C   0  0  0  0  0  0  0  0  0  0  0  0
    1.8941   -0.4981    0.1566 C   0  0  0  0  0  0  0  0  0  0  0  0
    0.5191   -0.8079    0.7509 C   0  0  0  0  0  0  0  0  0  0  0  0
   -0.6329   -0.7768   -0.2714 C   0  0  0  0  0  0  0  0  0  0  0  0
   -1.3834    0.5169   -0.2478 C   0  0  0  0  0  0  0  0  0  0  0  0
   -2.6763    0.6212   -0.0027 C   0  0  0  0  0  0  0  0  0  0  0  0
    1.3728    1.0798   -1.2327 H   0  0  0  0  0  0  0  0  0  0  0  0
    3.0505    1.1062   -0.7023 H   0  0  0  0  0  0  0  0  0  0  0  0
    1.7771    1.6457    0.3923 H   0  0  0  0  0  0  0  0  0  0  0  0
    2.1045   -1.2087   -0.6465 H   0  0  0  0  0  0  0  0  0  0  0  0
    2.6448   -0.6519    0.9358 H   0  0  0  0  0  0  0  0  0  0  0  0
    0.5646   -1.8035    1.1966 H   0  0  0  0  0  0  0  0  0  0  0  0
    0.3047   -0.1010    1.5556 H   0  0  0  0  0  0  0  0  0  0  0  0
   -0.2261   -0.9406   -1.2727 H   0  0  0  0  0  0  0  0  0  0  0  0
   -1.3316   -1.5886   -0.0615 H   0  0  0  0  0  0  0  0  0  0  0  0
   -0.7977    1.4067   -0.4327 H   0  0  0  0  0  0  0  0  0  0  0  0
   -3.1813    1.5722    0.0119 H   0  0  0  0  0  0  0  0  0  0  0  0
   -3.2882   -0.2452    0.1901 H   0  0  0  0  0  0  0  0  0  0  0  0
  1  2  1  0  0  0  0
  2  3  1  0  0  0  0
  3  4  1  0  0  0  0
  4  5  1  0  0  0  0
  5  6  2  0  0  0  0
  1  7  1  0  0  0  0
  1  8  1  0  0  0  0
  1  9  1  0  0  0  0
  2 10  1  0  0  0  0
  2 11  1  0  0  0  0
  3 12  1  0  0  0  0
  3 13  1  0  0  0  0
  4 14  1  0  0  0  0
  4 15  1  0  0  0  0
  5 16  1  0  0  0  0
  6 17  1  0  0  0  0
  6 18  1  0  0  0  0
M  END
