 xtb: 6.7.1 (edcfbbe)
          04112516013D

 20 19  0     0  0            999 V2000
   -3.1478   -0.4367   -0.8042 C   0  0  0  0  0  0  0  0  0  0  0  0
   -2.7078    0.5572    0.2649 C   0  0  0  0  0  0  0  0  0  0  0  0
   -1.1991    0.7999    0.2736 C   0  0  0  0  0  0  0  0  0  0  0  0
   -0.4069   -0.4389    0.6844 C   0  0  0  0  0  0  0  0  0  0  0  0
    0.9765   -0.1166    0.8846 O   0  0  0  0  0  0  0  0  0  0  0  0
    1.7879   -0.1286   -0.1687 C   0  0  0  0  0  0  0  0  0  0  0  0
    1.4263   -0.4215   -1.2895 O   0  0  0  0  0  0  0  0  0  0  0  0
    3.1870    0.2496    0.2143 C   0  0  0  0  0  0  0  0  0  0  0  0
   -4.2328   -0.4862   -0.8463 H   0  0  0  0  0  0  0  0  0  0  0  0
   -2.7793   -0.1314   -1.7808 H   0  0  0  0  0  0  0  0  0  0  0  0
   -2.7706   -1.4333   -0.5919 H   0  0  0  0  0  0  0  0  0  0  0  0
   -3.2027    1.5130    0.0845 H   0  0  0  0  0  0  0  0  0  0  0  0
   -3.0208    0.1994    1.2474 H   0  0  0  0  0  0  0  0  0  0  0  0
   -0.8687    1.1135   -0.7196 H   0  0  0  0  0  0  0  0  0  0  0  0
   -0.9640    1.6003    0.9785 H   0  0  0  0  0  0  0  0  0  0  0  0
   -0.7481   -0.8203    1.6478 H   0  0  0  0  0  0  0  0  0  0  0  0
   -0.4755   -1.2175   -0.0803 H   0  0  0  0  0  0  0  0  0  0  0  0
    3.5521   -0.4468    0.9641 H   0  0  0  0  0  0  0  0  0  0  0  0
    3.1800    1.2438    0.6527 H   0  0  0  0  0  0  0  0  0  0  0  0
    3.8240    0.2281   -0.6634 H   0  0  0  0  0  0  0  0  0  0  0  0
  1  2  1  0  0  0  0
  2  3  1  0  0  0  0
  3  4  1  0  0  0  0
  4  5  1  0  0  0  0
  5  6  1  0  0  0  0
  6  7  2  0  0  0  0
  6  8  1  0  0  0  0
  1  9  1  0  0  0  0
  1 10  1  0  0  0  0
  1 11  1  0  0  0  0
  2 12  1  0  0  0  0
  2 13  1  0  0  0  0
  3 14  1  0  0  0  0
  3 15  1  0  0  0  0
  4 16  1  0  0  0  0
  4 17  1  0  0  0  0
  8 18  1  0  0  0  0
  8 19  1  0  0  0  0
  8 20  1  0  0  0  0
M  END
