 xtb: 6.7.1 (edcfbbe)
          04112516093D

 19 18  0     0  0            999 V2000
    1.7819   -0.5280   -1.0381 C   0  0  0  0  0  0  0  0  0  0  0  0
    2.0129    0.2065    0.2769 C   0  0  0  0  0  0  0  0  0  0  0  0
    0.8800    1.1648    0.6441 C   0  0  0  0  0  0  0  0  0  0  0  0
   -0.3969    0.4594    1.1222 C   0  0  0  0  0  0  0  0  0  0  0  0
   -1.1643   -0.2823    0.0586 C   0  0  0  0  0  0  0  0  0  0  0  0
   -1.3932   -1.4759    0.1498 O   0  0  0  0  0  0  0  0  0  0  0  0
   -1.7053    0.5376   -1.0774 C   0  0  0  0  0  0  0  0  0  0  0  0
    1.6273    0.1795   -1.8497 H   0  0  0  0  0  0  0  0  0  0  0  0
    2.6439   -1.1449   -1.2809 H   0  0  0  0  0  0  0  0  0  0  0  0
    0.9134   -1.1784   -0.9739 H   0  0  0  0  0  0  0  0  0  0  0  0
    2.9368    0.7837    0.1970 H   0  0  0  0  0  0  0  0  0  0  0  0
    2.1465   -0.5219    1.0794 H   0  0  0  0  0  0  0  0  0  0  0  0
    0.6622    1.8053   -0.2109 H   0  0  0  0  0  0  0  0  0  0  0  0
    1.2212    1.8045    1.4600 H   0  0  0  0  0  0  0  0  0  0  0  0
   -0.1488   -0.2428    1.9208 H   0  0  0  0  0  0  0  0  0  0  0  0
   -1.0776    1.2155    1.5210 H   0  0  0  0  0  0  0  0  0  0  0  0
   -1.3153    1.5480   -1.0770 H   0  0  0  0  0  0  0  0  0  0  0  0
   -1.4870    0.0460   -2.0224 H   0  0  0  0  0  0  0  0  0  0  0  0
   -2.7892    0.5695   -0.9772 H   0  0  0  0  0  0  0  0  0  0  0  0
  1  2  1  0  0  0  0
  2  3  1  0  0  0  0
  3  4  1  0  0  0  0
  4  5  1  0  0  0  0
  5  6  2  0  0  0  0
  5  7  1  0  0  0  0
  1  8  1  0  0  0  0
  1  9  1  0  0  0  0
  1 10  1  0  0  0  0
  2 11  1  0  0  0  0
  2 12  1  0  0  0  0
  3 13  1  0  0  0  0
  3 14  1  0  0  0  0
  4 15  1  0  0  0  0
  4 16  1  0  0  0  0
  7 17  1  0  0  0  0
  7 18  1  0  0  0  0
  7 19  1  0  0  0  0
M  END
