 xtb: 6.7.1 (edcfbbe)
          04112516253D

 17 16  0     0  0            999 V2000
   -2.8945    0.6760    0.7752 C   0  0  0  0  0  0  0  0  0  0  0  0
   -2.3420   -0.0579   -0.4419 C   0  0  0  0  0  0  0  0  0  0  0  0
   -0.9550   -0.6535   -0.2039 C   0  0  0  0  0  0  0  0  0  0  0  0
    0.1168    0.4106    0.0136 C   0  0  0  0  0  0  0  0  0  0  0  0
    1.5014   -0.1720    0.0638 C   0  0  0  0  0  0  0  0  0  0  0  0
    1.7857   -1.3343   -0.1304 O   0  0  0  0  0  0  0  0  0  0  0  0
    2.4181    0.7449    0.3467 O   0  0  0  0  0  0  0  0  0  0  0  0
   -2.3038    1.5590    1.0025 H   0  0  0  0  0  0  0  0  0  0  0  0
   -3.9176    0.9932    0.5888 H   0  0  0  0  0  0  0  0  0  0  0  0
   -2.8917    0.0232    1.6450 H   0  0  0  0  0  0  0  0  0  0  0  0
   -2.3008    0.6260   -1.2920 H   0  0  0  0  0  0  0  0  0  0  0  0
   -3.0225   -0.8701   -0.7042 H   0  0  0  0  0  0  0  0  0  0  0  0
   -0.9827   -1.3167    0.6630 H   0  0  0  0  0  0  0  0  0  0  0  0
   -0.6684   -1.2615   -1.0646 H   0  0  0  0  0  0  0  0  0  0  0  0
   -0.0426    0.9562    0.9444 H   0  0  0  0  0  0  0  0  0  0  0  0
    0.1024    1.1415   -0.7984 H   0  0  0  0  0  0  0  0  0  0  0  0
    3.3225    0.3772    0.3747 H   0  0  0  0  0  0  0  0  0  0  0  0
  1  2  1  0  0  0  0
  2  3  1  0  0  0  0
  3  4  1  0  0  0  0
  4  5  1  0  0  0  0
  5  6  2  0  0  0  0
  5  7  1  0  0  0  0
  1  8  1  0  0  0  0
  1  9  1  0  0  0  0
  1 10  1  0  0  0  0
  2 11  1  0  0  0  0
  2 12  1  0  0  0  0
  3 13  1  0  0  0  0
  3 14  1  0  0  0  0
  4 15  1  0  0  0  0
  4 16  1  0  0  0  0
  7 17  1  0  0  0  0
M  END
