 xtb: 6.7.1 (edcfbbe)
          04112516113D

 20 19  0     0  0            999 V2000
    3.0026   -1.1173    0.3706 C   0  0  0  0  0  0  0  0  0  0  0  0
    1.7818   -0.4683   -0.2026 C   0  0  0  0  0  0  0  0  0  0  0  0
    0.9617   -1.0144   -0.9093 O   0  0  0  0  0  0  0  0  0  0  0  0
    1.7095    0.8165    0.1518 O   0  0  0  0  0  0  0  0  0  0  0  0
    0.5854    1.5838   -0.2803 C   0  0  0  0  0  0  0  0  0  0  0  0
   -0.5388    1.5294    0.7534 C   0  0  0  0  0  0  0  0  0  0  0  0
   -1.0507    0.2019    0.9035 O   0  0  0  0  0  0  0  0  0  0  0  0
   -1.8770   -0.2594   -0.0383 C   0  0  0  0  0  0  0  0  0  0  0  0
   -2.2310    0.4081   -0.9860 O   0  0  0  0  0  0  0  0  0  0  0  0
   -2.3270   -1.6549    0.2573 C   0  0  0  0  0  0  0  0  0  0  0  0
    3.0024   -0.9913    1.4496 H   0  0  0  0  0  0  0  0  0  0  0  0
    3.8849   -0.6216   -0.0259 H   0  0  0  0  0  0  0  0  0  0  0  0
    3.0146   -2.1698    0.1085 H   0  0  0  0  0  0  0  0  0  0  0  0
    0.9434    2.6074   -0.3847 H   0  0  0  0  0  0  0  0  0  0  0  0
    0.2270    1.1984   -1.2402 H   0  0  0  0  0  0  0  0  0  0  0  0
   -1.3446    2.1967    0.4355 H   0  0  0  0  0  0  0  0  0  0  0  0
   -0.1668    1.7981    1.7421 H   0  0  0  0  0  0  0  0  0  0  0  0
   -2.5432   -2.1683   -0.6740 H   0  0  0  0  0  0  0  0  0  0  0  0
   -3.2371   -1.6051    0.8517 H   0  0  0  0  0  0  0  0  0  0  0  0
   -1.5611   -2.1770    0.8207 H   0  0  0  0  0  0  0  0  0  0  0  0
  1  2  1  0  0  0  0
  2  3  2  0  0  0  0
  2  4  1  0  0  0  0
  4  5  1  0  0  0  0
  5  6  1  0  0  0  0
  6  7  1  0  0  0  0
  7  8  1  0  0  0  0
  8  9  2  0  0  0  0
  8 10  1  0  0  0  0
  1 11  1  0  0  0  0
  1 12  1  0  0  0  0
  1 13  1  0  0  0  0
  5 14  1  0  0  0  0
  5 15  1  0  0  0  0
  6 16  1  0  0  0  0
  6 17  1  0  0  0  0
 10 18  1  0  0  0  0
 10 19  1  0  0  0  0
 10 20  1  0  0  0  0
M  END
