 xtb: 6.7.1 (edcfbbe)
          04112516013D

 20 19  0     0  0            999 V2000
   -2.0366   -1.3181   -0.2630 C   0  0  0  0  0  0  0  0  0  0  0  0
   -2.1388   -0.0725    0.6115 C   0  0  0  0  0  0  0  0  0  0  0  0
   -1.6741    1.1998   -0.1065 C   0  0  0  0  0  0  0  0  0  0  0  0
   -0.1762    1.4638    0.0197 C   0  0  0  0  0  0  0  0  0  0  0  0
    0.5935    0.4594   -0.6562 O   0  0  0  0  0  0  0  0  0  0  0  0
    1.4723   -0.2588    0.0305 C   0  0  0  0  0  0  0  0  0  0  0  0
    1.6872   -0.1130    1.2172 O   0  0  0  0  0  0  0  0  0  0  0  0
    2.1598   -1.2666   -0.8425 C   0  0  0  0  0  0  0  0  0  0  0  0
   -2.6763   -1.2190   -1.1369 H   0  0  0  0  0  0  0  0  0  0  0  0
   -1.0164   -1.4739   -0.6026 H   0  0  0  0  0  0  0  0  0  0  0  0
   -2.3505   -2.1971    0.2950 H   0  0  0  0  0  0  0  0  0  0  0  0
   -3.1793    0.0531    0.9158 H   0  0  0  0  0  0  0  0  0  0  0  0
   -1.5455   -0.2123    1.5186 H   0  0  0  0  0  0  0  0  0  0  0  0
   -1.9363    1.1398   -1.1632 H   0  0  0  0  0  0  0  0  0  0  0  0
   -2.1763    2.0672    0.3227 H   0  0  0  0  0  0  0  0  0  0  0  0
    0.0812    2.4143   -0.4551 H   0  0  0  0  0  0  0  0  0  0  0  0
    0.1304    1.4847    1.0704 H   0  0  0  0  0  0  0  0  0  0  0  0
    1.8519   -1.1365   -1.8743 H   0  0  0  0  0  0  0  0  0  0  0  0
    1.9029   -2.2648   -0.4949 H   0  0  0  0  0  0  0  0  0  0  0  0
    3.2353   -1.1474   -0.7439 H   0  0  0  0  0  0  0  0  0  0  0  0
  1  2  1  0  0  0  0
  2  3  1  0  0  0  0
  3  4  1  0  0  0  0
  4  5  1  0  0  0  0
  5  6  1  0  0  0  0
  6  7  2  0  0  0  0
  6  8  1  0  0  0  0
  1  9  1  0  0  0  0
  1 10  1  0  0  0  0
  1 11  1  0  0  0  0
  2 12  1  0  0  0  0
  2 13  1  0  0  0  0
  3 14  1  0  0  0  0
  3 15  1  0  0  0  0
  4 16  1  0  0  0  0
  4 17  1  0  0  0  0
  8 18  1  0  0  0  0
  8 19  1  0  0  0  0
  8 20  1  0  0  0  0
M  END
