 xtb: 6.7.1 (edcfbbe)
          04112514203D

 23 22  0     0  0            999 V2000
    2.3174    0.6383    0.7569 C   0  0  0  0  0  0  0  0  0  0  0  0
    2.2534   -0.4565   -0.3014 C   0  0  0  0  0  0  0  0  0  0  0  0
    0.8856   -1.1362   -0.3968 C   0  0  0  0  0  0  0  0  0  0  0  0
   -0.2363   -0.2021   -0.8736 C   0  0  0  0  0  0  0  0  0  0  0  0
   -1.1423    0.3197    0.2500 C   0  0  0  0  0  0  0  0  0  0  0  0
   -1.9374    1.5316   -0.2334 C   0  0  0  0  0  0  0  0  0  0  0  0
   -2.1001   -0.7688    0.7305 C   0  0  0  0  0  0  0  0  0  0  0  0
    3.3254    1.0422    0.8198 H   0  0  0  0  0  0  0  0  0  0  0  0
    1.6403    1.4528    0.5143 H   0  0  0  0  0  0  0  0  0  0  0  0
    2.0469    0.2402    1.7326 H   0  0  0  0  0  0  0  0  0  0  0  0
    3.0014   -1.2179   -0.0665 H   0  0  0  0  0  0  0  0  0  0  0  0
    2.5115   -0.0331   -1.2751 H   0  0  0  0  0  0  0  0  0  0  0  0
    0.9767   -1.9732   -1.0922 H   0  0  0  0  0  0  0  0  0  0  0  0
    0.6314   -1.5530    0.5793 H   0  0  0  0  0  0  0  0  0  0  0  0
    0.2110    0.6471   -1.3943 H   0  0  0  0  0  0  0  0  0  0  0  0
   -0.8655   -0.7246   -1.5976 H   0  0  0  0  0  0  0  0  0  0  0  0
   -0.5188    0.6295    1.0942 H   0  0  0  0  0  0  0  0  0  0  0  0
   -2.5950    1.8955    0.5526 H   0  0  0  0  0  0  0  0  0  0  0  0
   -1.2704    2.3407   -0.5234 H   0  0  0  0  0  0  0  0  0  0  0  0
   -2.5468    1.2646   -1.0944 H   0  0  0  0  0  0  0  0  0  0  0  0
   -2.7695   -1.0636   -0.0752 H   0  0  0  0  0  0  0  0  0  0  0  0
   -2.7018   -0.4066    1.5610 H   0  0  0  0  0  0  0  0  0  0  0  0
   -1.5573   -1.6504    1.0621 H   0  0  0  0  0  0  0  0  0  0  0  0
  1  2  1  0  0  0  0
  2  3  1  0  0  0  0
  3  4  1  0  0  0  0
  4  5  1  0  0  0  0
  5  6  1  0  0  0  0
  5  7  1  0  0  0  0
  1  8  1  0  0  0  0
  1  9  1  0  0  0  0
  1 10  1  0  0  0  0
  2 11  1  0  0  0  0
  2 12  1  0  0  0  0
  3 13  1  0  0  0  0
  3 14  1  0  0  0  0
  4 15  1  0  0  0  0
  4 16  1  0  0  0  0
  5 17  1  0  0  0  0
  6 18  1  0  0  0  0
  6 19  1  0  0  0  0
  6 20  1  0  0  0  0
  7 21  1  0  0  0  0
  7 22  1  0  0  0  0
  7 23  1  0  0  0  0
M  END
