 xtb: 6.7.1 (edcfbbe)
          04112516153D

 26 25  0     0  0            999 V2000
    1.9810   -0.0489   -2.0348 C   0  0  0  0  0  0  0  0  0  0  0  0
    1.6980   -0.0383   -0.5289 C   0  0  0  0  0  0  0  0  0  0  0  0
    1.5103   -1.4516    0.0026 C   0  0  0  0  0  0  0  0  0  0  0  0
    0.5646    0.9061   -0.2894 C   0  0  0  0  0  0  0  0  0  0  0  0
   -0.6736    0.7297   -0.1236 N   0  0  0  0  0  0  0  0  0  0  0  0
   -1.1614   -0.5935   -0.1323 O   0  0  0  0  0  0  0  0  0  0  0  0
   -2.5220   -0.7107    0.0023 C   0  0  0  0  0  0  0  0  0  0  0  0
   -2.9733   -1.8415    0.0005 O   0  0  0  0  0  0  0  0  0  0  0  0
   -3.2036    0.4208    0.1164 N   0  0  0  0  0  0  0  0  0  0  0  0
   -4.6412    0.4646    0.2547 C   0  0  0  0  0  0  0  0  0  0  0  0
    3.1989    0.7355    0.2557 S   0  0  0  0  0  0  0  0  0  0  0  0
    2.7532    0.7142    2.0167 C   0  0  0  0  0  0  0  0  0  0  0  0
    1.1264   -0.4627   -2.5660 H   0  0  0  0  0  0  0  0  0  0  0  0
    2.1742    0.9586   -2.3948 H   0  0  0  0  0  0  0  0  0  0  0  0
    2.8549   -0.6635   -2.2340 H   0  0  0  0  0  0  0  0  0  0  0  0
    1.1816   -1.4445    1.0397 H   0  0  0  0  0  0  0  0  0  0  0  0
    2.4521   -1.9915   -0.0671 H   0  0  0  0  0  0  0  0  0  0  0  0
    0.7594   -1.9794   -0.5809 H   0  0  0  0  0  0  0  0  0  0  0  0
    0.8304    1.9573   -0.2894 H   0  0  0  0  0  0  0  0  0  0  0  0
   -2.6809    1.2876    0.0979 H   0  0  0  0  0  0  0  0  0  0  0  0
   -5.0796    1.0102   -0.5796 H   0  0  0  0  0  0  0  0  0  0  0  0
   -4.9108    0.9505    1.1911 H   0  0  0  0  0  0  0  0  0  0  0  0
   -5.0118   -0.5584    0.2553 H   0  0  0  0  0  0  0  0  0  0  0  0
    1.7553    1.1215    2.1441 H   0  0  0  0  0  0  0  0  0  0  0  0
    3.4817    1.3454    2.5140 H   0  0  0  0  0  0  0  0  0  0  0  0
    2.8157   -0.2989    2.4014 H   0  0  0  0  0  0  0  0  0  0  0  0
  1  2  1  0  0  0  0
  2  3  1  0  0  0  0
  2  4  1  0  0  0  0
  4  5  2  0  0  0  0
  5  6  1  0  0  0  0
  6  7  1  0  0  0  0
  7  8  2  0  0  0  0
  7  9  4  0  0  0  0
  9 10  1  0  0  0  0
  2 11  1  0  0  0  0
 11 12  1  0  0  0  0
  1 13  1  0  0  0  0
  1 14  1  0  0  0  0
  1 15  1  0  0  0  0
  3 16  1  0  0  0  0
  3 17  1  0  0  0  0
  3 18  1  0  0  0  0
  4 19  1  0  0  0  0
  9 20  1  0  0  0  0
 10 21  1  0  0  0  0
 10 22  1  0  0  0  0
 10 23  1  0  0  0  0
 12 24  1  0  0  0  0
 12 25  1  0  0  0  0
 12 26  1  0  0  0  0
M  END
