 xtb: 6.7.1 (edcfbbe)
          04112514233D

 23 22  0     0  0            999 V2000
    1.7737    0.6602   -1.4870 C   0  0  0  0  0  0  0  0  0  0  0  0
    2.3445   -0.2645   -0.4153 C   0  0  0  0  0  0  0  0  0  0  0  0
    3.0307    0.5454    0.6836 C   0  0  0  0  0  0  0  0  0  0  0  0
    1.2800   -1.2163    0.1517 C   0  0  0  0  0  0  0  0  0  0  0  0
    0.0801   -0.5471    0.8105 C   0  0  0  0  0  0  0  0  0  0  0  0
   -0.8286   -0.0834   -0.1995 O   0  0  0  0  0  0  0  0  0  0  0  0
   -2.0808    0.1645    0.1537 C   0  0  0  0  0  0  0  0  0  0  0  0
   -2.4891    0.0400    1.2921 O   0  0  0  0  0  0  0  0  0  0  0  0
   -2.9157    0.5959   -1.0147 C   0  0  0  0  0  0  0  0  0  0  0  0
    1.2790    0.0839   -2.2644 H   0  0  0  0  0  0  0  0  0  0  0  0
    2.5704    1.2440   -1.9421 H   0  0  0  0  0  0  0  0  0  0  0  0
    1.0487    1.3458   -1.0570 H   0  0  0  0  0  0  0  0  0  0  0  0
    3.1041   -0.9003   -0.8846 H   0  0  0  0  0  0  0  0  0  0  0  0
    3.8650    1.1044    0.2674 H   0  0  0  0  0  0  0  0  0  0  0  0
    3.4109   -0.1092    1.4640 H   0  0  0  0  0  0  0  0  0  0  0  0
    2.3437    1.2577    1.1337 H   0  0  0  0  0  0  0  0  0  0  0  0
    1.7492   -1.8569    0.8996 H   0  0  0  0  0  0  0  0  0  0  0  0
    0.9061   -1.8520   -0.6526 H   0  0  0  0  0  0  0  0  0  0  0  0
   -0.4585   -1.2560    1.4488 H   0  0  0  0  0  0  0  0  0  0  0  0
    0.3731    0.3049    1.4299 H   0  0  0  0  0  0  0  0  0  0  0  0
   -3.5484    1.4278   -0.7199 H   0  0  0  0  0  0  0  0  0  0  0  0
   -3.5602   -0.2322   -1.3015 H   0  0  0  0  0  0  0  0  0  0  0  0
   -2.2766    0.8658   -1.8483 H   0  0  0  0  0  0  0  0  0  0  0  0
  1  2  1  0  0  0  0
  2  3  1  0  0  0  0
  2  4  1  0  0  0  0
  4  5  1  0  0  0  0
  5  6  1  0  0  0  0
  6  7  1  0  0  0  0
  7  8  2  0  0  0  0
  7  9  1  0  0  0  0
  1 10  1  0  0  0  0
  1 11  1  0  0  0  0
  1 12  1  0  0  0  0
  2 13  1  0  0  0  0
  3 14  1  0  0  0  0
  3 15  1  0  0  0  0
  3 16  1  0  0  0  0
  4 17  1  0  0  0  0
  4 18  1  0  0  0  0
  5 19  1  0  0  0  0
  5 20  1  0  0  0  0
  9 21  1  0  0  0  0
  9 22  1  0  0  0  0
  9 23  1  0  0  0  0
M  END
