 xtb: 6.7.1 (edcfbbe)
          04112514203D

 23 22  0     0  0            999 V2000
    2.4975    0.7701   -0.0234 C   0  0  0  0  0  0  0  0  0  0  0  0
    1.6606   -0.2771   -0.7488 C   0  0  0  0  0  0  0  0  0  0  0  0
    0.8124   -1.1360    0.1911 C   0  0  0  0  0  0  0  0  0  0  0  0
   -0.2041   -0.4085    1.0781 C   0  0  0  0  0  0  0  0  0  0  0  0
   -1.4590    0.1910    0.4173 C   0  0  0  0  0  0  0  0  0  0  0  0
   -1.2094    1.5298   -0.2759 C   0  0  0  0  0  0  0  0  0  0  0  0
   -2.1367   -0.7863   -0.5409 C   0  0  0  0  0  0  0  0  0  0  0  0
    3.0977    0.3033    0.7549 H   0  0  0  0  0  0  0  0  0  0  0  0
    3.1669    1.2669   -0.7219 H   0  0  0  0  0  0  0  0  0  0  0  0
    1.8662    1.5266    0.4342 H   0  0  0  0  0  0  0  0  0  0  0  0
    2.3329   -0.9478   -1.2911 H   0  0  0  0  0  0  0  0  0  0  0  0
    1.0293    0.2110   -1.4910 H   0  0  0  0  0  0  0  0  0  0  0  0
    0.2956   -1.8938   -0.3999 H   0  0  0  0  0  0  0  0  0  0  0  0
    1.4965   -1.6655    0.8610 H   0  0  0  0  0  0  0  0  0  0  0  0
   -0.5514   -1.1423    1.8115 H   0  0  0  0  0  0  0  0  0  0  0  0
    0.3033    0.3800    1.6362 H   0  0  0  0  0  0  0  0  0  0  0  0
   -2.1595    0.3875    1.2398 H   0  0  0  0  0  0  0  0  0  0  0  0
   -2.1584    1.9801   -0.5605 H   0  0  0  0  0  0  0  0  0  0  0  0
   -0.6941    2.2179    0.3902 H   0  0  0  0  0  0  0  0  0  0  0  0
   -0.6147    1.4084   -1.1758 H   0  0  0  0  0  0  0  0  0  0  0  0
   -2.2958   -1.7479   -0.0582 H   0  0  0  0  0  0  0  0  0  0  0  0
   -1.5330   -0.9378   -1.4320 H   0  0  0  0  0  0  0  0  0  0  0  0
   -3.1032   -0.3947   -0.8507 H   0  0  0  0  0  0  0  0  0  0  0  0
  1  2  1  0  0  0  0
  2  3  1  0  0  0  0
  3  4  1  0  0  0  0
  4  5  1  0  0  0  0
  5  6  1  0  0  0  0
  5  7  1  0  0  0  0
  1  8  1  0  0  0  0
  1  9  1  0  0  0  0
  1 10  1  0  0  0  0
  2 11  1  0  0  0  0
  2 12  1  0  0  0  0
  3 13  1  0  0  0  0
  3 14  1  0  0  0  0
  4 15  1  0  0  0  0
  4 16  1  0  0  0  0
  5 17  1  0  0  0  0
  6 18  1  0  0  0  0
  6 19  1  0  0  0  0
  6 20  1  0  0  0  0
  7 21  1  0  0  0  0
  7 22  1  0  0  0  0
  7 23  1  0  0  0  0
M  END
