 xtb: 6.7.1 (edcfbbe)
          04112514133D

 23 22  0     0  0            999 V2000
    2.9805    0.3526    0.3667 C   0  0  0  0  0  0  0  0  0  0  0  0
    2.1519   -0.6476   -0.4322 C   0  0  0  0  0  0  0  0  0  0  0  0
    0.7019   -0.2051   -0.6389 C   0  0  0  0  0  0  0  0  0  0  0  0
   -0.0995   -0.1824    0.6619 C   0  0  0  0  0  0  0  0  0  0  0  0
   -1.5972    0.1187    0.4996 C   0  0  0  0  0  0  0  0  0  0  0  0
   -1.8403    1.4850   -0.1389 C   0  0  0  0  0  0  0  0  0  0  0  0
   -2.3259   -0.9721   -0.2836 C   0  0  0  0  0  0  0  0  0  0  0  0
    4.0196    0.0342    0.4060 H   0  0  0  0  0  0  0  0  0  0  0  0
    2.9402    1.3353   -0.0980 H   0  0  0  0  0  0  0  0  0  0  0  0
    2.6144    0.4376    1.3862 H   0  0  0  0  0  0  0  0  0  0  0  0
    2.1653   -1.6156    0.0741 H   0  0  0  0  0  0  0  0  0  0  0  0
    2.6154   -0.7824   -1.4127 H   0  0  0  0  0  0  0  0  0  0  0  0
    0.6989    0.7876   -1.0919 H   0  0  0  0  0  0  0  0  0  0  0  0
    0.2319   -0.8971   -1.3395 H   0  0  0  0  0  0  0  0  0  0  0  0
    0.0046   -1.1535    1.1533 H   0  0  0  0  0  0  0  0  0  0  0  0
    0.3250    0.5707    1.3287 H   0  0  0  0  0  0  0  0  0  0  0  0
   -2.0214    0.1408    1.5114 H   0  0  0  0  0  0  0  0  0  0  0  0
   -1.2902    2.2591    0.3912 H   0  0  0  0  0  0  0  0  0  0  0  0
   -1.5267    1.4859   -1.1797 H   0  0  0  0  0  0  0  0  0  0  0  0
   -2.8990    1.7320   -0.1047 H   0  0  0  0  0  0  0  0  0  0  0  0
   -3.3991   -0.7967   -0.2592 H   0  0  0  0  0  0  0  0  0  0  0  0
   -2.1282   -1.9509    0.1475 H   0  0  0  0  0  0  0  0  0  0  0  0
   -2.0106   -0.9811   -1.3238 H   0  0  0  0  0  0  0  0  0  0  0  0
  1  2  1  0  0  0  0
  2  3  1  0  0  0  0
  3  4  1  0  0  0  0
  4  5  1  0  0  0  0
  5  6  1  0  0  0  0
  5  7  1  0  0  0  0
  1  8  1  0  0  0  0
  1  9  1  0  0  0  0
  1 10  1  0  0  0  0
  2 11  1  0  0  0  0
  2 12  1  0  0  0  0
  3 13  1  0  0  0  0
  3 14  1  0  0  0  0
  4 15  1  0  0  0  0
  4 16  1  0  0  0  0
  5 17  1  0  0  0  0
  6 18  1  0  0  0  0
  6 19  1  0  0  0  0
  6 20  1  0  0  0  0
  7 21  1  0  0  0  0
  7 22  1  0  0  0  0
  7 23  1  0  0  0  0
M  END
