 xtb: 6.7.1 (edcfbbe)
          04112514233D

 18 17  0     0  0            999 V2000
    2.5498    0.1736    0.6911 C   0  0  0  0  0  0  0  0  0  0  0  0
    1.8151   -0.1504   -0.6053 C   0  0  0  0  0  0  0  0  0  0  0  0
    0.3381    0.2470   -0.5796 C   0  0  0  0  0  0  0  0  0  0  0  0
   -0.4850   -0.5959    0.3903 C   0  0  0  0  0  0  0  0  0  0  0  0
   -1.9556   -0.3124    0.3886 C   0  0  0  0  0  0  0  0  0  0  0  0
   -2.5876    0.6115   -0.3112 C   0  0  0  0  0  0  0  0  0  0  0  0
    2.1639   -0.4152    1.5189 H   0  0  0  0  0  0  0  0  0  0  0  0
    2.4394    1.2277    0.9364 H   0  0  0  0  0  0  0  0  0  0  0  0
    3.6100   -0.0450    0.5871 H   0  0  0  0  0  0  0  0  0  0  0  0
    2.3018    0.3816   -1.4261 H   0  0  0  0  0  0  0  0  0  0  0  0
    1.8976   -1.2200   -0.8120 H   0  0  0  0  0  0  0  0  0  0  0  0
    0.2560    1.3009   -0.3058 H   0  0  0  0  0  0  0  0  0  0  0  0
   -0.0720    0.1261   -1.5847 H   0  0  0  0  0  0  0  0  0  0  0  0
   -0.3436   -1.6558    0.1552 H   0  0  0  0  0  0  0  0  0  0  0  0
   -0.1207   -0.4472    1.4106 H   0  0  0  0  0  0  0  0  0  0  0  0
   -2.5241   -0.9546    1.0513 H   0  0  0  0  0  0  0  0  0  0  0  0
   -3.6545    0.7381   -0.2379 H   0  0  0  0  0  0  0  0  0  0  0  0
   -2.0799    1.2813   -0.9829 H   0  0  0  0  0  0  0  0  0  0  0  0
  1  2  1  0  0  0  0
  2  3  1  0  0  0  0
  3  4  1  0  0  0  0
  4  5  1  0  0  0  0
  5  6  2  0  0  0  0
  1  7  1  0  0  0  0
  1  8  1  0  0  0  0
  1  9  1  0  0  0  0
  2 10  1  0  0  0  0
  2 11  1  0  0  0  0
  3 12  1  0  0  0  0
  3 13  1  0  0  0  0
  4 14  1  0  0  0  0
  4 15  1  0  0  0  0
  5 16  1  0  0  0  0
  6 17  1  0  0  0  0
  6 18  1  0  0  0  0
M  END
