 xtb: 6.7.1 (edcfbbe)
          04112514133D

 23 22  0     0  0            999 V2000
    2.9751    0.1714    0.3735 C   0  0  0  0  0  0  0  0  0  0  0  0
    1.8440    0.2718   -0.6440 C   0  0  0  0  0  0  0  0  0  0  0  0
    0.7338   -0.7513   -0.3899 C   0  0  0  0  0  0  0  0  0  0  0  0
   -0.1562   -0.4095    0.8147 C   0  0  0  0  0  0  0  0  0  0  0  0
   -1.5460    0.1504    0.4711 C   0  0  0  0  0  0  0  0  0  0  0  0
   -1.4674    1.4233   -0.3686 C   0  0  0  0  0  0  0  0  0  0  0  0
   -2.4259   -0.8937   -0.2147 C   0  0  0  0  0  0  0  0  0  0  0  0
    3.4349   -0.8138    0.3325 H   0  0  0  0  0  0  0  0  0  0  0  0
    3.7400    0.9162    0.1665 H   0  0  0  0  0  0  0  0  0  0  0  0
    2.6074    0.3325    1.3840 H   0  0  0  0  0  0  0  0  0  0  0  0
    2.2567    0.1035   -1.6418 H   0  0  0  0  0  0  0  0  0  0  0  0
    1.4260    1.2793   -0.6255 H   0  0  0  0  0  0  0  0  0  0  0  0
    0.1205   -0.8339   -1.2873 H   0  0  0  0  0  0  0  0  0  0  0  0
    1.1998   -1.7264   -0.2334 H   0  0  0  0  0  0  0  0  0  0  0  0
   -0.3038   -1.3050    1.4222 H   0  0  0  0  0  0  0  0  0  0  0  0
    0.3567    0.3212    1.4427 H   0  0  0  0  0  0  0  0  0  0  0  0
   -2.0231    0.4079    1.4252 H   0  0  0  0  0  0  0  0  0  0  0  0
   -1.0297    1.2203   -1.3425 H   0  0  0  0  0  0  0  0  0  0  0  0
   -2.4636    1.8323   -0.5231 H   0  0  0  0  0  0  0  0  0  0  0  0
   -0.8642    2.1758    0.1341 H   0  0  0  0  0  0  0  0  0  0  0  0
   -2.0249   -1.1685   -1.1870 H   0  0  0  0  0  0  0  0  0  0  0  0
   -3.4292   -0.5006   -0.3627 H   0  0  0  0  0  0  0  0  0  0  0  0
   -2.4954   -1.7925    0.3937 H   0  0  0  0  0  0  0  0  0  0  0  0
  1  2  1  0  0  0  0
  2  3  1  0  0  0  0
  3  4  1  0  0  0  0
  4  5  1  0  0  0  0
  5  6  1  0  0  0  0
  5  7  1  0  0  0  0
  1  8  1  0  0  0  0
  1  9  1  0  0  0  0
  1 10  1  0  0  0  0
  2 11  1  0  0  0  0
  2 12  1  0  0  0  0
  3 13  1  0  0  0  0
  3 14  1  0  0  0  0
  4 15  1  0  0  0  0
  4 16  1  0  0  0  0
  5 17  1  0  0  0  0
  6 18  1  0  0  0  0
  6 19  1  0  0  0  0
  6 20  1  0  0  0  0
  7 21  1  0  0  0  0
  7 22  1  0  0  0  0
  7 23  1  0  0  0  0
M  END
