 xtb: 6.7.1 (edcfbbe)
          04112514133D

 23 22  0     0  0            999 V2000
    3.4646    0.2556    0.1460 C   0  0  0  0  0  0  0  0  0  0  0  0
    2.2082   -0.4961   -0.2777 C   0  0  0  0  0  0  0  0  0  0  0  0
    0.9381    0.1977    0.2108 C   0  0  0  0  0  0  0  0  0  0  0  0
   -0.3201   -0.5510   -0.2240 C   0  0  0  0  0  0  0  0  0  0  0  0
   -1.6180    0.0332    0.3456 C   0  0  0  0  0  0  0  0  0  0  0  0
   -1.9133    1.4200   -0.2218 C   0  0  0  0  0  0  0  0  0  0  0  0
   -2.7853   -0.9075    0.0481 C   0  0  0  0  0  0  0  0  0  0  0  0
    3.4607    1.2640   -0.2619 H   0  0  0  0  0  0  0  0  0  0  0  0
    3.5184    0.3257    1.2301 H   0  0  0  0  0  0  0  0  0  0  0  0
    4.3554   -0.2560   -0.2103 H   0  0  0  0  0  0  0  0  0  0  0  0
    2.2414   -1.5122    0.1223 H   0  0  0  0  0  0  0  0  0  0  0  0
    2.1801   -0.5711   -1.3672 H   0  0  0  0  0  0  0  0  0  0  0  0
    0.9607    0.2620    1.3016 H   0  0  0  0  0  0  0  0  0  0  0  0
    0.9205    1.2156   -0.1822 H   0  0  0  0  0  0  0  0  0  0  0  0
   -0.3790   -0.5558   -1.3152 H   0  0  0  0  0  0  0  0  0  0  0  0
   -0.2342   -1.5902    0.1041 H   0  0  0  0  0  0  0  0  0  0  0  0
   -1.5099    0.1176    1.4332 H   0  0  0  0  0  0  0  0  0  0  0  0
   -2.8617    1.7894    0.1617 H   0  0  0  0  0  0  0  0  0  0  0  0
   -1.1383    2.1297    0.0540 H   0  0  0  0  0  0  0  0  0  0  0  0
   -1.9753    1.3780   -1.3072 H   0  0  0  0  0  0  0  0  0  0  0  0
   -2.6067   -1.8908    0.4769 H   0  0  0  0  0  0  0  0  0  0  0  0
   -2.9143   -1.0197   -1.0264 H   0  0  0  0  0  0  0  0  0  0  0  0
   -3.7092   -0.5141    0.4654 H   0  0  0  0  0  0  0  0  0  0  0  0
  1  2  1  0  0  0  0
  2  3  1  0  0  0  0
  3  4  1  0  0  0  0
  4  5  1  0  0  0  0
  5  6  1  0  0  0  0
  5  7  1  0  0  0  0
  1  8  1  0  0  0  0
  1  9  1  0  0  0  0
  1 10  1  0  0  0  0
  2 11  1  0  0  0  0
  2 12  1  0  0  0  0
  3 13  1  0  0  0  0
  3 14  1  0  0  0  0
  4 15  1  0  0  0  0
  4 16  1  0  0  0  0
  5 17  1  0  0  0  0
  6 18  1  0  0  0  0
  6 19  1  0  0  0  0
  6 20  1  0  0  0  0
  7 21  1  0  0  0  0
  7 22  1  0  0  0  0
  7 23  1  0  0  0  0
M  END
