 xtb: 6.7.1 (edcfbbe)
          04112516273D

 20 19  0     0  0            999 V2000
    3.9539    0.0635    0.2827 C   0  0  0  0  0  0  0  0  0  0  0  0
    2.6037   -0.2942   -0.2532 C   0  0  0  0  0  0  0  0  0  0  0  0
    2.3047   -1.3595   -0.7476 O   0  0  0  0  0  0  0  0  0  0  0  0
    1.7483    0.7234   -0.1245 O   0  0  0  0  0  0  0  0  0  0  0  0
    0.3979    0.5563   -0.5488 C   0  0  0  0  0  0  0  0  0  0  0  0
   -0.5317    0.9497    0.6026 C   0  0  0  0  0  0  0  0  0  0  0  0
   -1.8893    0.9350    0.1718 O   0  0  0  0  0  0  0  0  0  0  0  0
   -2.5568   -0.2225    0.2224 C   0  0  0  0  0  0  0  0  0  0  0  0
   -2.0586   -1.2548    0.6157 O   0  0  0  0  0  0  0  0  0  0  0  0
   -3.9704   -0.0578   -0.2360 C   0  0  0  0  0  0  0  0  0  0  0  0
    3.9547    1.0904    0.6302 H   0  0  0  0  0  0  0  0  0  0  0  0
    4.6957   -0.0792   -0.4987 H   0  0  0  0  0  0  0  0  0  0  0  0
    4.1973   -0.6137    1.0976 H   0  0  0  0  0  0  0  0  0  0  0  0
    0.2294    1.2126   -1.4070 H   0  0  0  0  0  0  0  0  0  0  0  0
    0.2333   -0.4871   -0.8404 H   0  0  0  0  0  0  0  0  0  0  0  0
   -0.3278    1.9732    0.9184 H   0  0  0  0  0  0  0  0  0  0  0  0
   -0.4033    0.2551    1.4390 H   0  0  0  0  0  0  0  0  0  0  0  0
   -4.6140   -0.0240    0.6406 H   0  0  0  0  0  0  0  0  0  0  0  0
   -4.2607   -0.9170   -0.8330 H   0  0  0  0  0  0  0  0  0  0  0  0
   -4.0733    0.8651   -0.7957 H   0  0  0  0  0  0  0  0  0  0  0  0
  1  2  1  0  0  0  0
  2  3  2  0  0  0  0
  2  4  1  0  0  0  0
  4  5  1  0  0  0  0
  5  6  1  0  0  0  0
  6  7  1  0  0  0  0
  7  8  1  0  0  0  0
  8  9  2  0  0  0  0
  8 10  1  0  0  0  0
  1 11  1  0  0  0  0
  1 12  1  0  0  0  0
  1 13  1  0  0  0  0
  5 14  1  0  0  0  0
  5 15  1  0  0  0  0
  6 16  1  0  0  0  0
  6 17  1  0  0  0  0
 10 18  1  0  0  0  0
 10 19  1  0  0  0  0
 10 20  1  0  0  0  0
M  END
