 xtb: 6.7.1 (edcfbbe)
          04112514523D

 17 16  0     0  0            999 V2000
    2.9319   -1.0358    0.4016 C   0  0  0  0  0  0  0  0  0  0  0  0
    2.3890   -0.0231   -0.5994 C   0  0  0  0  0  0  0  0  0  0  0  0
    1.3396    0.9276    0.0044 C   0  0  0  0  0  0  0  0  0  0  0  0
    0.0911    0.2185    0.3745 C   0  0  0  0  0  0  0  0  0  0  0  0
   -1.1090    0.4529   -0.1705 C   0  0  0  0  0  0  0  0  0  0  0  0
   -2.2869   -0.2828    0.2250 C   0  0  0  0  0  0  0  0  0  0  0  0
   -3.4055   -0.1229   -0.2299 O   0  0  0  0  0  0  0  0  0  0  0  0
    3.7335   -1.6131   -0.0526 H   0  0  0  0  0  0  0  0  0  0  0  0
    3.3298   -0.5313    1.2790 H   0  0  0  0  0  0  0  0  0  0  0  0
    2.1593   -1.7301    0.7204 H   0  0  0  0  0  0  0  0  0  0  0  0
    1.9475   -0.5459   -1.4498 H   0  0  0  0  0  0  0  0  0  0  0  0
    3.2142    0.5848   -0.9732 H   0  0  0  0  0  0  0  0  0  0  0  0
    1.1183    1.7188   -0.7125 H   0  0  0  0  0  0  0  0  0  0  0  0
    1.7655    1.3786    0.9041 H   0  0  0  0  0  0  0  0  0  0  0  0
    0.1793   -0.5472    1.1342 H   0  0  0  0  0  0  0  0  0  0  0  0
   -1.2479    1.2075   -0.9320 H   0  0  0  0  0  0  0  0  0  0  0  0
   -2.1175   -1.0463    1.0073 H   0  0  0  0  0  0  0  0  0  0  0  0
  1  2  1  0  0  0  0
  2  3  1  0  0  0  0
  3  4  1  0  0  0  0
  4  5  2  0  0  0  0
  5  6  1  0  0  0  0
  6  7  2  0  0  0  0
  1  8  1  0  0  0  0
  1  9  1  0  0  0  0
  1 10  1  0  0  0  0
  2 11  1  0  0  0  0
  2 12  1  0  0  0  0
  3 13  1  0  0  0  0
  3 14  1  0  0  0  0
  4 15  1  0  0  0  0
  5 16  1  0  0  0  0
  6 17  1  0  0  0  0
M  END
