 xtb: 6.7.1 (edcfbbe)
          04112516293D

 20 19  0     0  0            999 V2000
   -1.9787   -1.3248   -0.2214 C   0  0  0  0  0  0  0  0  0  0  0  0
   -2.1485   -0.0580    0.6111 C   0  0  0  0  0  0  0  0  0  0  0  0
   -1.6670    1.2075   -0.1069 C   0  0  0  0  0  0  0  0  0  0  0  0
   -0.1707    1.4745    0.0353 C   0  0  0  0  0  0  0  0  0  0  0  0
    0.6128    0.5011   -0.6692 O   0  0  0  0  0  0  0  0  0  0  0  0
    1.4309   -0.2919    0.0106 C   0  0  0  0  0  0  0  0  0  0  0  0
    1.5765   -0.2429    1.2155 O   0  0  0  0  0  0  0  0  0  0  0  0
    2.1488   -1.2477   -0.8962 C   0  0  0  0  0  0  0  0  0  0  0  0
   -2.3697   -2.1837    0.3191 H   0  0  0  0  0  0  0  0  0  0  0  0
   -2.5173   -1.2351   -1.1619 H   0  0  0  0  0  0  0  0  0  0  0  0
   -0.9319   -1.5122   -0.4434 H   0  0  0  0  0  0  0  0  0  0  0  0
   -3.2073    0.0584    0.8494 H   0  0  0  0  0  0  0  0  0  0  0  0
   -1.6077   -0.1665    1.5544 H   0  0  0  0  0  0  0  0  0  0  0  0
   -1.9164    1.1449   -1.1668 H   0  0  0  0  0  0  0  0  0  0  0  0
   -2.1747    2.0762    0.3137 H   0  0  0  0  0  0  0  0  0  0  0  0
    0.0827    2.4396   -0.4108 H   0  0  0  0  0  0  0  0  0  0  0  0
    0.1296    1.4652    1.0879 H   0  0  0  0  0  0  0  0  0  0  0  0
    3.2203   -1.1215   -0.7655 H   0  0  0  0  0  0  0  0  0  0  0  0
    1.8657   -1.0661   -1.9272 H   0  0  0  0  0  0  0  0  0  0  0  0
    1.8973   -2.2654   -0.6066 H   0  0  0  0  0  0  0  0  0  0  0  0
  1  2  1  0  0  0  0
  2  3  1  0  0  0  0
  3  4  1  0  0  0  0
  4  5  1  0  0  0  0
  5  6  1  0  0  0  0
  6  7  2  0  0  0  0
  6  8  1  0  0  0  0
  1  9  1  0  0  0  0
  1 10  1  0  0  0  0
  1 11  1  0  0  0  0
  2 12  1  0  0  0  0
  2 13  1  0  0  0  0
  3 14  1  0  0  0  0
  3 15  1  0  0  0  0
  4 16  1  0  0  0  0
  4 17  1  0  0  0  0
  8 18  1  0  0  0  0
  8 19  1  0  0  0  0
  8 20  1  0  0  0  0
M  END
