 xtb: 6.7.1 (edcfbbe)
          04112516093D

 19 18  0     0  0            999 V2000
    3.1076   -0.4684   -0.2427 C   0  0  0  0  0  0  0  0  0  0  0  0
    1.7189    0.1056   -0.4955 C   0  0  0  0  0  0  0  0  0  0  0  0
    0.9487    0.3126    0.8075 C   0  0  0  0  0  0  0  0  0  0  0  0
   -0.4372    0.9083    0.5693 C   0  0  0  0  0  0  0  0  0  0  0  0
   -1.4262   -0.0622   -0.0242 C   0  0  0  0  0  0  0  0  0  0  0  0
   -1.1776   -1.2381   -0.2062 O   0  0  0  0  0  0  0  0  0  0  0  0
   -2.7720    0.5236   -0.3553 C   0  0  0  0  0  0  0  0  0  0  0  0
    3.0341   -1.4318    0.2566 H   0  0  0  0  0  0  0  0  0  0  0  0
    3.6397   -0.6077   -1.1805 H   0  0  0  0  0  0  0  0  0  0  0  0
    3.6881    0.2019    0.3875 H   0  0  0  0  0  0  0  0  0  0  0  0
    1.1558   -0.5753   -1.1371 H   0  0  0  0  0  0  0  0  0  0  0  0
    1.8119    1.0611   -1.0176 H   0  0  0  0  0  0  0  0  0  0  0  0
    1.5190    0.9758    1.4604 H   0  0  0  0  0  0  0  0  0  0  0  0
    0.8382   -0.6500    1.3118 H   0  0  0  0  0  0  0  0  0  0  0  0
   -0.8676    1.2537    1.5128 H   0  0  0  0  0  0  0  0  0  0  0  0
   -0.3701    1.7746   -0.0921 H   0  0  0  0  0  0  0  0  0  0  0  0
   -3.0236    0.2815   -1.3854 H   0  0  0  0  0  0  0  0  0  0  0  0
   -3.5214    0.0486    0.2749 H   0  0  0  0  0  0  0  0  0  0  0  0
   -2.7953    1.5969   -0.2064 H   0  0  0  0  0  0  0  0  0  0  0  0
  1  2  1  0  0  0  0
  2  3  1  0  0  0  0
  3  4  1  0  0  0  0
  4  5  1  0  0  0  0
  5  6  2  0  0  0  0
  5  7  1  0  0  0  0
  1  8  1  0  0  0  0
  1  9  1  0  0  0  0
  1 10  1  0  0  0  0
  2 11  1  0  0  0  0
  2 12  1  0  0  0  0
  3 13  1  0  0  0  0
  3 14  1  0  0  0  0
  4 15  1  0  0  0  0
  4 16  1  0  0  0  0
  7 17  1  0  0  0  0
  7 18  1  0  0  0  0
  7 19  1  0  0  0  0
M  END
