 xtb: 6.7.1 (edcfbbe)
          04112516013D

 20 19  0     0  0            999 V2000
   -3.6568   -0.7147    0.0903 C   0  0  0  0  0  0  0  0  0  0  0  0
   -2.2406   -0.4043   -0.3785 C   0  0  0  0  0  0  0  0  0  0  0  0
   -1.6063    0.7096    0.4528 C   0  0  0  0  0  0  0  0  0  0  0  0
   -0.1864    1.0221    0.0059 C   0  0  0  0  0  0  0  0  0  0  0  0
    0.6462   -0.1083    0.3043 O   0  0  0  0  0  0  0  0  0  0  0  0
    1.9144   -0.0594   -0.0806 C   0  0  0  0  0  0  0  0  0  0  0  0
    2.3925    0.8933   -0.6641 O   0  0  0  0  0  0  0  0  0  0  0  0
    2.6582   -1.3090    0.2820 C   0  0  0  0  0  0  0  0  0  0  0  0
   -3.6526   -1.0373    1.1285 H   0  0  0  0  0  0  0  0  0  0  0  0
   -4.2865    0.1680    0.0078 H   0  0  0  0  0  0  0  0  0  0  0  0
   -4.0925   -1.5060   -0.5140 H   0  0  0  0  0  0  0  0  0  0  0  0
   -1.6231   -1.3007   -0.3004 H   0  0  0  0  0  0  0  0  0  0  0  0
   -2.2617   -0.1025   -1.4279 H   0  0  0  0  0  0  0  0  0  0  0  0
   -2.1979    1.6210    0.3637 H   0  0  0  0  0  0  0  0  0  0  0  0
   -1.5834    0.4139    1.5025 H   0  0  0  0  0  0  0  0  0  0  0  0
   -0.1351    1.2183   -1.0705 H   0  0  0  0  0  0  0  0  0  0  0  0
    0.2174    1.8946    0.5303 H   0  0  0  0  0  0  0  0  0  0  0  0
    2.0797   -1.8921    0.9899 H   0  0  0  0  0  0  0  0  0  0  0  0
    3.6284   -1.0447    0.6925 H   0  0  0  0  0  0  0  0  0  0  0  0
    2.8232   -1.8885   -0.6236 H   0  0  0  0  0  0  0  0  0  0  0  0
  1  2  1  0  0  0  0
  2  3  1  0  0  0  0
  3  4  1  0  0  0  0
  4  5  1  0  0  0  0
  5  6  1  0  0  0  0
  6  7  2  0  0  0  0
  6  8  1  0  0  0  0
  1  9  1  0  0  0  0
  1 10  1  0  0  0  0
  1 11  1  0  0  0  0
  2 12  1  0  0  0  0
  2 13  1  0  0  0  0
  3 14  1  0  0  0  0
  3 15  1  0  0  0  0
  4 16  1  0  0  0  0
  4 17  1  0  0  0  0
  8 18  1  0  0  0  0
  8 19  1  0  0  0  0
  8 20  1  0  0  0  0
M  END
