 xtb: 6.7.1 (edcfbbe)
          04112516263D

 20 19  0     0  0            999 V2000
   -1.7766   -1.2070   -0.5637 C   0  0  0  0  0  0  0  0  0  0  0  0
   -2.3606   -0.0641    0.2577 C   0  0  0  0  0  0  0  0  0  0  0  0
   -1.3313    0.6292    1.1500 C   0  0  0  0  0  0  0  0  0  0  0  0
   -0.2620    1.3935    0.3621 C   0  0  0  0  0  0  0  0  0  0  0  0
    0.7765    0.5145   -0.2824 C   0  0  0  0  0  0  0  0  0  0  0  0
    1.1901    0.6551   -1.4170 O   0  0  0  0  0  0  0  0  0  0  0  0
    1.2424   -0.4141    0.5444 O   0  0  0  0  0  0  0  0  0  0  0  0
    2.2533   -1.2914    0.0474 C   0  0  0  0  0  0  0  0  0  0  0  0
   -1.2903   -1.9324    0.0851 H   0  0  0  0  0  0  0  0  0  0  0  0
   -2.5625   -1.7135   -1.1189 H   0  0  0  0  0  0  0  0  0  0  0  0
   -1.0457   -0.8383   -1.2808 H   0  0  0  0  0  0  0  0  0  0  0  0
   -2.8085    0.6708   -0.4145 H   0  0  0  0  0  0  0  0  0  0  0  0
   -3.1547   -0.4590    0.8945 H   0  0  0  0  0  0  0  0  0  0  0  0
   -0.8443   -0.1064    1.7910 H   0  0  0  0  0  0  0  0  0  0  0  0
   -1.8533    1.3437    1.7880 H   0  0  0  0  0  0  0  0  0  0  0  0
    0.2800    2.0501    1.0465 H   0  0  0  0  0  0  0  0  0  0  0  0
   -0.7141    2.0072   -0.4179 H   0  0  0  0  0  0  0  0  0  0  0  0
    2.5546   -1.9016    0.8930 H   0  0  0  0  0  0  0  0  0  0  0  0
    3.0934   -0.7139   -0.3406 H   0  0  0  0  0  0  0  0  0  0  0  0
    1.8483   -1.9093   -0.7554 H   0  0  0  0  0  0  0  0  0  0  0  0
  1  2  1  0  0  0  0
  2  3  1  0  0  0  0
  3  4  1  0  0  0  0
  4  5  1  0  0  0  0
  5  6  2  0  0  0  0
  5  7  1  0  0  0  0
  7  8  1  0  0  0  0
  1  9  1  0  0  0  0
  1 10  1  0  0  0  0
  1 11  1  0  0  0  0
  2 12  1  0  0  0  0
  2 13  1  0  0  0  0
  3 14  1  0  0  0  0
  3 15  1  0  0  0  0
  4 16  1  0  0  0  0
  4 17  1  0  0  0  0
  8 18  1  0  0  0  0
  8 19  1  0  0  0  0
  8 20  1  0  0  0  0
M  END
