 xtb: 6.7.1 (edcfbbe)
          04112514233D

 23 22  0     0  0            999 V2000
    2.5826    1.6586    0.1116 C   0  0  0  0  0  0  0  0  0  0  0  0
    1.8332    0.3882   -0.2864 C   0  0  0  0  0  0  0  0  0  0  0  0
    2.8219   -0.6718   -0.7668 C   0  0  0  0  0  0  0  0  0  0  0  0
    1.0017   -0.1144    0.9007 C   0  0  0  0  0  0  0  0  0  0  0  0
   -0.0206   -1.1822    0.5208 C   0  0  0  0  0  0  0  0  0  0  0  0
   -0.9573   -0.6908   -0.4483 O   0  0  0  0  0  0  0  0  0  0  0  0
   -2.0208   -0.0220   -0.0180 C   0  0  0  0  0  0  0  0  0  0  0  0
   -2.2622    0.1712    1.1563 O   0  0  0  0  0  0  0  0  0  0  0  0
   -2.8707    0.4544   -1.1576 C   0  0  0  0  0  0  0  0  0  0  0  0
    3.2604    1.4528    0.9370 H   0  0  0  0  0  0  0  0  0  0  0  0
    1.8882    2.4356    0.4233 H   0  0  0  0  0  0  0  0  0  0  0  0
    3.1645    2.0348   -0.7260 H   0  0  0  0  0  0  0  0  0  0  0  0
    1.1484    0.6277   -1.1074 H   0  0  0  0  0  0  0  0  0  0  0  0
    3.4922   -0.9564    0.0411 H   0  0  0  0  0  0  0  0  0  0  0  0
    3.4191   -0.2805   -1.5866 H   0  0  0  0  0  0  0  0  0  0  0  0
    2.3060   -1.5599   -1.1202 H   0  0  0  0  0  0  0  0  0  0  0  0
    0.4604    0.7245    1.3455 H   0  0  0  0  0  0  0  0  0  0  0  0
    1.6599   -0.5316    1.6637 H   0  0  0  0  0  0  0  0  0  0  0  0
    0.4492   -2.0415    0.0434 H   0  0  0  0  0  0  0  0  0  0  0  0
   -0.5735   -1.5012    1.4100 H   0  0  0  0  0  0  0  0  0  0  0  0
   -2.6172   -0.0889   -2.0613 H   0  0  0  0  0  0  0  0  0  0  0  0
   -2.6822    1.5155   -1.3069 H   0  0  0  0  0  0  0  0  0  0  0  0
   -3.9192    0.3302   -0.9045 H   0  0  0  0  0  0  0  0  0  0  0  0
  1  2  1  0  0  0  0
  2  3  1  0  0  0  0
  2  4  1  0  0  0  0
  4  5  1  0  0  0  0
  5  6  1  0  0  0  0
  6  7  1  0  0  0  0
  7  8  2  0  0  0  0
  7  9  1  0  0  0  0
  1 10  1  0  0  0  0
  1 11  1  0  0  0  0
  1 12  1  0  0  0  0
  2 13  1  0  0  0  0
  3 14  1  0  0  0  0
  3 15  1  0  0  0  0
  3 16  1  0  0  0  0
  4 17  1  0  0  0  0
  4 18  1  0  0  0  0
  5 19  1  0  0  0  0
  5 20  1  0  0  0  0
  9 21  1  0  0  0  0
  9 22  1  0  0  0  0
  9 23  1  0  0  0  0
M  END
