 xtb: 6.7.1 (edcfbbe)
          04112514233D

 23 22  0     0  0            999 V2000
    3.3381    0.5622    0.4889 C   0  0  0  0  0  0  0  0  0  0  0  0
    1.8399    0.4474    0.2082 C   0  0  0  0  0  0  0  0  0  0  0  0
    1.5862    0.5808   -1.2923 C   0  0  0  0  0  0  0  0  0  0  0  0
    1.3049   -0.8840    0.7569 C   0  0  0  0  0  0  0  0  0  0  0  0
   -0.1824   -0.8737    1.0948 C   0  0  0  0  0  0  0  0  0  0  0  0
   -0.9874   -0.8371   -0.0924 O   0  0  0  0  0  0  0  0  0  0  0  0
   -1.9338    0.0844   -0.2106 C   0  0  0  0  0  0  0  0  0  0  0  0
   -2.1773    0.9173    0.6397 O   0  0  0  0  0  0  0  0  0  0  0  0
   -2.6563   -0.0344   -1.5198 C   0  0  0  0  0  0  0  0  0  0  0  0
    3.8719   -0.2631    0.0238 H   0  0  0  0  0  0  0  0  0  0  0  0
    3.5332    0.5429    1.5582 H   0  0  0  0  0  0  0  0  0  0  0  0
    3.7280    1.4939    0.0868 H   0  0  0  0  0  0  0  0  0  0  0  0
    1.3260    1.2673    0.7241 H   0  0  0  0  0  0  0  0  0  0  0  0
    2.1163   -0.1998   -1.8335 H   0  0  0  0  0  0  0  0  0  0  0  0
    1.9369    1.5462   -1.6500 H   0  0  0  0  0  0  0  0  0  0  0  0
    0.5275    0.4975   -1.5198 H   0  0  0  0  0  0  0  0  0  0  0  0
    1.8295   -1.1251    1.6822 H   0  0  0  0  0  0  0  0  0  0  0  0
    1.4975   -1.6808    0.0376 H   0  0  0  0  0  0  0  0  0  0  0  0
   -0.4544   -1.7933    1.6209 H   0  0  0  0  0  0  0  0  0  0  0  0
   -0.4423   -0.0108    1.7165 H   0  0  0  0  0  0  0  0  0  0  0  0
   -2.5478    0.8976   -2.0691 H   0  0  0  0  0  0  0  0  0  0  0  0
   -3.7153   -0.1839   -1.3262 H   0  0  0  0  0  0  0  0  0  0  0  0
   -2.2539   -0.8628   -2.0925 H   0  0  0  0  0  0  0  0  0  0  0  0
  1  2  1  0  0  0  0
  2  3  1  0  0  0  0
  2  4  1  0  0  0  0
  4  5  1  0  0  0  0
  5  6  1  0  0  0  0
  6  7  1  0  0  0  0
  7  8  2  0  0  0  0
  7  9  1  0  0  0  0
  1 10  1  0  0  0  0
  1 11  1  0  0  0  0
  1 12  1  0  0  0  0
  2 13  1  0  0  0  0
  3 14  1  0  0  0  0
  3 15  1  0  0  0  0
  3 16  1  0  0  0  0
  4 17  1  0  0  0  0
  4 18  1  0  0  0  0
  5 19  1  0  0  0  0
  5 20  1  0  0  0  0
  9 21  1  0  0  0  0
  9 22  1  0  0  0  0
  9 23  1  0  0  0  0
M  END
