 xtb: 6.7.1 (edcfbbe)
          04112516153D

 26 25  0     0  0            999 V2000
    1.3698    0.0004   -1.9336 C   0  0  0  0  0  0  0  0  0  0  0  0
    1.5869   -0.4077   -0.4749 C   0  0  0  0  0  0  0  0  0  0  0  0
    3.0706   -0.6164   -0.1735 C   0  0  0  0  0  0  0  0  0  0  0  0
    0.8806   -1.7155   -0.2592 C   0  0  0  0  0  0  0  0  0  0  0  0
   -0.2004   -2.0668    0.2805 N   0  0  0  0  0  0  0  0  0  0  0  0
   -1.0361   -1.0923    0.8734 O   0  0  0  0  0  0  0  0  0  0  0  0
   -1.7740   -0.3041    0.0338 C   0  0  0  0  0  0  0  0  0  0  0  0
   -1.6905   -0.3498   -1.1790 O   0  0  0  0  0  0  0  0  0  0  0  0
   -2.5917    0.4631    0.7505 N   0  0  0  0  0  0  0  0  0  0  0  0
   -3.4454    1.4668    0.1556 C   0  0  0  0  0  0  0  0  0  0  0  0
    0.8907    0.8848    0.6662 S   0  0  0  0  0  0  0  0  0  0  0  0
    2.0670    2.2602    0.4753 C   0  0  0  0  0  0  0  0  0  0  0  0
    1.7759   -0.7622   -2.5940 H   0  0  0  0  0  0  0  0  0  0  0  0
    0.3060    0.1092   -2.1387 H   0  0  0  0  0  0  0  0  0  0  0  0
    1.8690    0.9431   -2.1416 H   0  0  0  0  0  0  0  0  0  0  0  0
    3.2165   -0.8237    0.8845 H   0  0  0  0  0  0  0  0  0  0  0  0
    3.6399    0.2675   -0.4460 H   0  0  0  0  0  0  0  0  0  0  0  0
    3.4496   -1.4562   -0.7512 H   0  0  0  0  0  0  0  0  0  0  0  0
    1.4129   -2.5726   -0.6581 H   0  0  0  0  0  0  0  0  0  0  0  0
   -2.5082    0.4261    1.7550 H   0  0  0  0  0  0  0  0  0  0  0  0
   -3.1013    2.4651    0.4252 H   0  0  0  0  0  0  0  0  0  0  0  0
   -4.4699    1.3267    0.4951 H   0  0  0  0  0  0  0  0  0  0  0  0
   -3.3990    1.3480   -0.9248 H   0  0  0  0  0  0  0  0  0  0  0  0
    2.1898    2.5070   -0.5735 H   0  0  0  0  0  0  0  0  0  0  0  0
    3.0140    2.0153    0.9435 H   0  0  0  0  0  0  0  0  0  0  0  0
    1.6030    3.0916    0.9952 H   0  0  0  0  0  0  0  0  0  0  0  0
  1  2  1  0  0  0  0
  2  3  1  0  0  0  0
  2  4  1  0  0  0  0
  4  5  2  0  0  0  0
  5  6  1  0  0  0  0
  6  7  1  0  0  0  0
  7  8  2  0  0  0  0
  7  9  4  0  0  0  0
  9 10  1  0  0  0  0
  2 11  1  0  0  0  0
 11 12  1  0  0  0  0
  1 13  1  0  0  0  0
  1 14  1  0  0  0  0
  1 15  1  0  0  0  0
  3 16  1  0  0  0  0
  3 17  1  0  0  0  0
  3 18  1  0  0  0  0
  4 19  1  0  0  0  0
  9 20  1  0  0  0  0
 10 21  1  0  0  0  0
 10 22  1  0  0  0  0
 10 23  1  0  0  0  0
 12 24  1  0  0  0  0
 12 25  1  0  0  0  0
 12 26  1  0  0  0  0
M  END
