 xtb: 6.7.1 (edcfbbe)
          04112516013D

 20 19  0     0  0            999 V2000
   -2.3699   -1.2928    0.2934 C   0  0  0  0  0  0  0  0  0  0  0  0
   -2.6790    0.1992    0.3132 C   0  0  0  0  0  0  0  0  0  0  0  0
   -1.6750    1.0321   -0.4852 C   0  0  0  0  0  0  0  0  0  0  0  0
   -0.2822    1.0753    0.1315 C   0  0  0  0  0  0  0  0  0  0  0  0
    0.4228   -0.1360   -0.1782 O   0  0  0  0  0  0  0  0  0  0  0  0
    1.7410   -0.1436   -0.0397 C   0  0  0  0  0  0  0  0  0  0  0  0
    2.3756    0.8209    0.3402 O   0  0  0  0  0  0  0  0  0  0  0  0
    2.3317   -1.4745   -0.3963 C   0  0  0  0  0  0  0  0  0  0  0  0
   -3.1246   -1.8414    0.8517 H   0  0  0  0  0  0  0  0  0  0  0  0
   -2.3592   -1.6635   -0.7287 H   0  0  0  0  0  0  0  0  0  0  0  0
   -1.3989   -1.4915    0.7374 H   0  0  0  0  0  0  0  0  0  0  0  0
   -3.6717    0.3623   -0.1105 H   0  0  0  0  0  0  0  0  0  0  0  0
   -2.6971    0.5546    1.3456 H   0  0  0  0  0  0  0  0  0  0  0  0
   -1.5915    0.6367   -1.4983 H   0  0  0  0  0  0  0  0  0  0  0  0
   -2.0364    2.0591   -0.5468 H   0  0  0  0  0  0  0  0  0  0  0  0
    0.3008    1.9144   -0.2634 H   0  0  0  0  0  0  0  0  0  0  0  0
   -0.3312    1.1783    1.2206 H   0  0  0  0  0  0  0  0  0  0  0  0
    2.5623   -2.0071    0.5238 H   0  0  0  0  0  0  0  0  0  0  0  0
    3.2592   -1.3241   -0.9406 H   0  0  0  0  0  0  0  0  0  0  0  0
    1.6225   -2.0509   -0.9802 H   0  0  0  0  0  0  0  0  0  0  0  0
  1  2  1  0  0  0  0
  2  3  1  0  0  0  0
  3  4  1  0  0  0  0
  4  5  1  0  0  0  0
  5  6  1  0  0  0  0
  6  7  2  0  0  0  0
  6  8  1  0  0  0  0
  1  9  1  0  0  0  0
  1 10  1  0  0  0  0
  1 11  1  0  0  0  0
  2 12  1  0  0  0  0
  2 13  1  0  0  0  0
  3 14  1  0  0  0  0
  3 15  1  0  0  0  0
  4 16  1  0  0  0  0
  4 17  1  0  0  0  0
  8 18  1  0  0  0  0
  8 19  1  0  0  0  0
  8 20  1  0  0  0  0
M  END
