 xtb: 6.7.1 (edcfbbe)
          04112516293D

 20 19  0     0  0            999 V2000
   -2.1280   -1.3054   -0.0985 C   0  0  0  0  0  0  0  0  0  0  0  0
   -2.5138    0.1646    0.0186 C   0  0  0  0  0  0  0  0  0  0  0  0
   -1.3575    1.1211   -0.2766 C   0  0  0  0  0  0  0  0  0  0  0  0
   -0.2495    1.1015    0.7753 C   0  0  0  0  0  0  0  0  0  0  0  0
    0.5406   -0.0942    0.7289 O   0  0  0  0  0  0  0  0  0  0  0  0
    1.5355   -0.1604   -0.1479 C   0  0  0  0  0  0  0  0  0  0  0  0
    1.8363    0.7507   -0.8922 O   0  0  0  0  0  0  0  0  0  0  0  0
    2.2241   -1.4916   -0.0976 C   0  0  0  0  0  0  0  0  0  0  0  0
   -2.9974   -1.9364    0.0687 H   0  0  0  0  0  0  0  0  0  0  0  0
   -1.7372   -1.5163   -1.0922 H   0  0  0  0  0  0  0  0  0  0  0  0
   -1.3675   -1.5639    0.6329 H   0  0  0  0  0  0  0  0  0  0  0  0
   -3.3188    0.3776   -0.6877 H   0  0  0  0  0  0  0  0  0  0  0  0
   -2.8918    0.3624    1.0233 H   0  0  0  0  0  0  0  0  0  0  0  0
   -0.9182    0.8898   -1.2498 H   0  0  0  0  0  0  0  0  0  0  0  0
   -1.7416    2.1412   -0.3186 H   0  0  0  0  0  0  0  0  0  0  0  0
    0.4172    1.9564    0.6233 H   0  0  0  0  0  0  0  0  0  0  0  0
   -0.6647    1.1214    1.7837 H   0  0  0  0  0  0  0  0  0  0  0  0
    1.6903   -2.1776   -0.7523 H   0  0  0  0  0  0  0  0  0  0  0  0
    2.1971   -1.8842    0.9134 H   0  0  0  0  0  0  0  0  0  0  0  0
    3.2438   -1.3894   -0.4544 H   0  0  0  0  0  0  0  0  0  0  0  0
  1  2  1  0  0  0  0
  2  3  1  0  0  0  0
  3  4  1  0  0  0  0
  4  5  1  0  0  0  0
  5  6  1  0  0  0  0
  6  7  2  0  0  0  0
  6  8  1  0  0  0  0
  1  9  1  0  0  0  0
  1 10  1  0  0  0  0
  1 11  1  0  0  0  0
  2 12  1  0  0  0  0
  2 13  1  0  0  0  0
  3 14  1  0  0  0  0
  3 15  1  0  0  0  0
  4 16  1  0  0  0  0
  4 17  1  0  0  0  0
  8 18  1  0  0  0  0
  8 19  1  0  0  0  0
  8 20  1  0  0  0  0
M  END
