 xtb: 6.7.1 (edcfbbe)
          04112516013D

 20 19  0     0  0            999 V2000
   -3.5587   -0.7557   -0.1211 C   0  0  0  0  0  0  0  0  0  0  0  0
   -2.1166   -0.3664   -0.4226 C   0  0  0  0  0  0  0  0  0  0  0  0
   -1.6081    0.6968    0.5496 C   0  0  0  0  0  0  0  0  0  0  0  0
   -0.1728    1.1093    0.2556 C   0  0  0  0  0  0  0  0  0  0  0  0
    0.6967    0.0019    0.5351 O   0  0  0  0  0  0  0  0  0  0  0  0
    1.8485   -0.0828   -0.1165 C   0  0  0  0  0  0  0  0  0  0  0  0
    2.2133    0.7343   -0.9385 O   0  0  0  0  0  0  0  0  0  0  0  0
    2.6232   -1.3028    0.2824 C   0  0  0  0  0  0  0  0  0  0  0  0
   -3.9042   -1.5088   -0.8245 H   0  0  0  0  0  0  0  0  0  0  0  0
   -3.6415   -1.1600    0.8847 H   0  0  0  0  0  0  0  0  0  0  0  0
   -4.2101    0.1116   -0.1975 H   0  0  0  0  0  0  0  0  0  0  0  0
   -1.4772   -1.2485   -0.3532 H   0  0  0  0  0  0  0  0  0  0  0  0
   -2.0476    0.0166   -1.4434 H   0  0  0  0  0  0  0  0  0  0  0  0
   -2.2348    1.5865    0.4844 H   0  0  0  0  0  0  0  0  0  0  0  0
   -1.6576    0.3127    1.5692 H   0  0  0  0  0  0  0  0  0  0  0  0
   -0.0404    1.4013   -0.7916 H   0  0  0  0  0  0  0  0  0  0  0  0
    0.1347    1.9448    0.8923 H   0  0  0  0  0  0  0  0  0  0  0  0
    3.6334   -1.0106    0.5552 H   0  0  0  0  0  0  0  0  0  0  0  0
    2.6890   -1.9703   -0.5734 H   0  0  0  0  0  0  0  0  0  0  0  0
    2.1291   -1.8013    1.1089 H   0  0  0  0  0  0  0  0  0  0  0  0
  1  2  1  0  0  0  0
  2  3  1  0  0  0  0
  3  4  1  0  0  0  0
  4  5  1  0  0  0  0
  5  6  1  0  0  0  0
  6  7  2  0  0  0  0
  6  8  1  0  0  0  0
  1  9  1  0  0  0  0
  1 10  1  0  0  0  0
  1 11  1  0  0  0  0
  2 12  1  0  0  0  0
  2 13  1  0  0  0  0
  3 14  1  0  0  0  0
  3 15  1  0  0  0  0
  4 16  1  0  0  0  0
  4 17  1  0  0  0  0
  8 18  1  0  0  0  0
  8 19  1  0  0  0  0
  8 20  1  0  0  0  0
M  END
