 xtb: 6.7.1 (edcfbbe)
          04112514133D

 23 22  0     0  0            999 V2000
    3.2302    0.2987    0.3042 C   0  0  0  0  0  0  0  0  0  0  0  0
    1.7999   -0.1975    0.4833 C   0  0  0  0  0  0  0  0  0  0  0  0
    0.9876   -0.0432   -0.8010 C   0  0  0  0  0  0  0  0  0  0  0  0
   -0.4081   -0.6647   -0.7231 C   0  0  0  0  0  0  0  0  0  0  0  0
   -1.3472   -0.0539    0.3241 C   0  0  0  0  0  0  0  0  0  0  0  0
   -1.6153    1.4253    0.0561 C   0  0  0  0  0  0  0  0  0  0  0  0
   -2.6661   -0.8267    0.3352 C   0  0  0  0  0  0  0  0  0  0  0  0
    3.7923    0.1895    1.2285 H   0  0  0  0  0  0  0  0  0  0  0  0
    3.7360   -0.2675   -0.4748 H   0  0  0  0  0  0  0  0  0  0  0  0
    3.2355    1.3490    0.0207 H   0  0  0  0  0  0  0  0  0  0  0  0
    1.3273    0.3656    1.2898 H   0  0  0  0  0  0  0  0  0  0  0  0
    1.8146   -1.2501    0.7755 H   0  0  0  0  0  0  0  0  0  0  0  0
    0.9110    1.0150   -1.0558 H   0  0  0  0  0  0  0  0  0  0  0  0
    1.5291   -0.5330   -1.6147 H   0  0  0  0  0  0  0  0  0  0  0  0
   -0.8817   -0.5748   -1.7043 H   0  0  0  0  0  0  0  0  0  0  0  0
   -0.2999   -1.7310   -0.5079 H   0  0  0  0  0  0  0  0  0  0  0  0
   -0.8875   -0.1534    1.3127 H   0  0  0  0  0  0  0  0  0  0  0  0
   -0.7076    2.0138    0.1571 H   0  0  0  0  0  0  0  0  0  0  0  0
   -2.0074    1.5621   -0.9496 H   0  0  0  0  0  0  0  0  0  0  0  0
   -2.3462    1.8091    0.7644 H   0  0  0  0  0  0  0  0  0  0  0  0
   -2.4932   -1.8799    0.5446 H   0  0  0  0  0  0  0  0  0  0  0  0
   -3.1600   -0.7456   -0.6310 H   0  0  0  0  0  0  0  0  0  0  0  0
   -3.3347   -0.4312    1.0963 H   0  0  0  0  0  0  0  0  0  0  0  0
  1  2  1  0  0  0  0
  2  3  1  0  0  0  0
  3  4  1  0  0  0  0
  4  5  1  0  0  0  0
  5  6  1  0  0  0  0
  5  7  1  0  0  0  0
  1  8  1  0  0  0  0
  1  9  1  0  0  0  0
  1 10  1  0  0  0  0
  2 11  1  0  0  0  0
  2 12  1  0  0  0  0
  3 13  1  0  0  0  0
  3 14  1  0  0  0  0
  4 15  1  0  0  0  0
  4 16  1  0  0  0  0
  5 17  1  0  0  0  0
  6 18  1  0  0  0  0
  6 19  1  0  0  0  0
  6 20  1  0  0  0  0
  7 21  1  0  0  0  0
  7 22  1  0  0  0  0
  7 23  1  0  0  0  0
M  END
