 xtb: 6.7.1 (edcfbbe)
          04112517153D

 20 19  0     0  0            999 V2000
   -3.9285    0.0828   -0.2985 C   0  0  0  0  0  0  0  0  0  0  0  0
   -2.7004   -0.2505    0.5400 C   0  0  0  0  0  0  0  0  0  0  0  0
   -1.4077    0.0672   -0.2073 C   0  0  0  0  0  0  0  0  0  0  0  0
   -0.1741   -0.2590    0.6292 C   0  0  0  0  0  0  0  0  0  0  0  0
    1.1067    0.0303   -0.1067 C   0  0  0  0  0  0  0  0  0  0  0  0
    1.1948    0.3781   -1.2644 O   0  0  0  0  0  0  0  0  0  0  0  0
    2.1672   -0.1474    0.6791 O   0  0  0  0  0  0  0  0  0  0  0  0
    3.4574    0.0839    0.1069 C   0  0  0  0  0  0  0  0  0  0  0  0
   -3.9254   -0.4910   -1.2223 H   0  0  0  0  0  0  0  0  0  0  0  0
   -4.8389   -0.1487    0.2483 H   0  0  0  0  0  0  0  0  0  0  0  0
   -3.9390    1.1398   -0.5542 H   0  0  0  0  0  0  0  0  0  0  0  0
   -2.7298    0.3218    1.4692 H   0  0  0  0  0  0  0  0  0  0  0  0
   -2.7159   -1.3107    0.8000 H   0  0  0  0  0  0  0  0  0  0  0  0
   -1.3874    1.1251   -0.4770 H   0  0  0  0  0  0  0  0  0  0  0  0
   -1.3675   -0.5019   -1.1381 H   0  0  0  0  0  0  0  0  0  0  0  0
   -0.1639   -1.3164    0.9026 H   0  0  0  0  0  0  0  0  0  0  0  0
   -0.1655    0.3148    1.5575 H   0  0  0  0  0  0  0  0  0  0  0  0
    4.1688   -0.1067    0.9040 H   0  0  0  0  0  0  0  0  0  0  0  0
    3.5294    1.1132   -0.2464 H   0  0  0  0  0  0  0  0  0  0  0  0
    3.6191   -0.5916   -0.7339 H   0  0  0  0  0  0  0  0  0  0  0  0
  1  2  1  0  0  0  0
  2  3  1  0  0  0  0
  3  4  1  0  0  0  0
  4  5  1  0  0  0  0
  5  6  2  0  0  0  0
  5  7  1  0  0  0  0
  7  8  1  0  0  0  0
  1  9  1  0  0  0  0
  1 10  1  0  0  0  0
  1 11  1  0  0  0  0
  2 12  1  0  0  0  0
  2 13  1  0  0  0  0
  3 14  1  0  0  0  0
  3 15  1  0  0  0  0
  4 16  1  0  0  0  0
  4 17  1  0  0  0  0
  8 18  1  0  0  0  0
  8 19  1  0  0  0  0
  8 20  1  0  0  0  0
M  END
