 xtb: 6.7.1 (edcfbbe)
          04112517153D

 20 19  0     0  0            999 V2000
   -3.3659   -0.9062    0.3162 C   0  0  0  0  0  0  0  0  0  0  0  0
   -2.8061    0.5041    0.1650 C   0  0  0  0  0  0  0  0  0  0  0  0
   -1.4190    0.5329   -0.4757 C   0  0  0  0  0  0  0  0  0  0  0  0
   -0.3479   -0.1092    0.4018 C   0  0  0  0  0  0  0  0  0  0  0  0
    1.0350    0.0842   -0.1596 C   0  0  0  0  0  0  0  0  0  0  0  0
    1.3153    0.7233   -1.1507 O   0  0  0  0  0  0  0  0  0  0  0  0
    1.9488   -0.5406    0.5814 O   0  0  0  0  0  0  0  0  0  0  0  0
    3.3147   -0.4349    0.1710 C   0  0  0  0  0  0  0  0  0  0  0  0
   -4.3869   -0.8659    0.6875 H   0  0  0  0  0  0  0  0  0  0  0  0
   -3.3706   -1.4169   -0.6439 H   0  0  0  0  0  0  0  0  0  0  0  0
   -2.7749   -1.4899    1.0164 H   0  0  0  0  0  0  0  0  0  0  0  0
   -3.4836    1.0883   -0.4604 H   0  0  0  0  0  0  0  0  0  0  0  0
   -2.7619    0.9855    1.1439 H   0  0  0  0  0  0  0  0  0  0  0  0
   -1.1306    1.5680   -0.6706 H   0  0  0  0  0  0  0  0  0  0  0  0
   -1.4472    0.0206   -1.4393 H   0  0  0  0  0  0  0  0  0  0  0  0
   -0.5114   -1.1817    0.5120 H   0  0  0  0  0  0  0  0  0  0  0  0
   -0.3592    0.3275    1.4029 H   0  0  0  0  0  0  0  0  0  0  0  0
    3.8862   -0.9817    0.9140 H   0  0  0  0  0  0  0  0  0  0  0  0
    3.6143    0.6132    0.1375 H   0  0  0  0  0  0  0  0  0  0  0  0
    3.4407   -0.8714   -0.8205 H   0  0  0  0  0  0  0  0  0  0  0  0
  1  2  1  0  0  0  0
  2  3  1  0  0  0  0
  3  4  1  0  0  0  0
  4  5  1  0  0  0  0
  5  6  2  0  0  0  0
  5  7  1  0  0  0  0
  7  8  1  0  0  0  0
  1  9  1  0  0  0  0
  1 10  1  0  0  0  0
  1 11  1  0  0  0  0
  2 12  1  0  0  0  0
  2 13  1  0  0  0  0
  3 14  1  0  0  0  0
  3 15  1  0  0  0  0
  4 16  1  0  0  0  0
  4 17  1  0  0  0  0
  8 18  1  0  0  0  0
  8 19  1  0  0  0  0
  8 20  1  0  0  0  0
M  END
