 xtb: 6.7.1 (edcfbbe)
          04112517493D

 26 26  0     0  0            999 V2000
   -3.3899   -0.9345   -1.2555 C   0  0  0  0  0  0  0  0  0  0  0  0
   -3.1764   -1.0507    0.2482 C   0  0  0  0  0  0  0  0  0  0  0  0
   -2.5064    0.1998    0.8341 C   0  0  0  0  0  0  0  0  0  0  0  0
   -1.1200    0.3928    0.2879 C   0  0  0  0  0  0  0  0  0  0  0  0
   -0.8515    1.3431   -0.6825 C   0  0  0  0  0  0  0  0  0  0  0  0
    0.4254    1.4857   -1.2010 C   0  0  0  0  0  0  0  0  0  0  0  0
    1.4540    0.6749   -0.7568 C   0  0  0  0  0  0  0  0  0  0  0  0
    1.1931   -0.2925    0.2277 C   0  0  0  0  0  0  0  0  0  0  0  0
   -0.0844   -0.4225    0.7385 C   0  0  0  0  0  0  0  0  0  0  0  0
    2.2853   -1.0455    0.6019 O   0  0  0  0  0  0  0  0  0  0  0  0
    2.1036   -2.0492    1.5786 C   0  0  0  0  0  0  0  0  0  0  0  0
    2.7073    0.8233   -1.2749 O   0  0  0  0  0  0  0  0  0  0  0  0
   -4.0267   -0.0833   -1.4851 H   0  0  0  0  0  0  0  0  0  0  0  0
   -2.4383   -0.7975   -1.7645 H   0  0  0  0  0  0  0  0  0  0  0  0
   -3.8637   -1.8331   -1.6431 H   0  0  0  0  0  0  0  0  0  0  0  0
   -2.5545   -1.9230    0.4581 H   0  0  0  0  0  0  0  0  0  0  0  0
   -4.1393   -1.1982    0.7413 H   0  0  0  0  0  0  0  0  0  0  0  0
   -2.4589    0.0968    1.9203 H   0  0  0  0  0  0  0  0  0  0  0  0
   -3.1164    1.0735    0.6005 H   0  0  0  0  0  0  0  0  0  0  0  0
   -1.6421    1.9832   -1.0425 H   0  0  0  0  0  0  0  0  0  0  0  0
    0.6440    2.2237   -1.9560 H   0  0  0  0  0  0  0  0  0  0  0  0
   -0.2954   -1.1590    1.4978 H   0  0  0  0  0  0  0  0  0  0  0  0
    1.7735   -1.6199    2.5280 H   0  0  0  0  0  0  0  0  0  0  0  0
    3.0819   -2.5077    1.7041 H   0  0  0  0  0  0  0  0  0  0  0  0
    1.3851   -2.8009    1.2415 H   0  0  0  0  0  0  0  0  0  0  0  0
    3.2975    0.1797   -0.8512 H   0  0  0  0  0  0  0  0  0  0  0  0
  1  2  1  0  0  0  0
  2  3  1  0  0  0  0
  3  4  1  0  0  0  0
  4  5  4  0  0  0  0
  5  6  4  0  0  0  0
  6  7  4  0  0  0  0
  7  8  4  0  0  0  0
  4  9  4  0  0  0  0
  8  9  4  0  0  0  0
  8 10  1  0  0  0  0
 10 11  1  0  0  0  0
  7 12  1  0  0  0  0
  1 13  1  0  0  0  0
  1 14  1  0  0  0  0
  1 15  1  0  0  0  0
  2 16  1  0  0  0  0
  2 17  1  0  0  0  0
  3 18  1  0  0  0  0
  3 19  1  0  0  0  0
  5 20  1  0  0  0  0
  6 21  1  0  0  0  0
  9 22  1  0  0  0  0
 11 23  1  0  0  0  0
 11 24  1  0  0  0  0
 11 25  1  0  0  0  0
 12 26  1  0  0  0  0
M  END
