 xtb: 6.7.1 (edcfbbe)
          04112516353D

 19 18  0     0  0            999 V2000
    2.9742    0.0696   -0.6401 C   0  0  0  0  0  0  0  0  0  0  0  0
    1.6140   -0.3687   -0.1102 C   0  0  0  0  0  0  0  0  0  0  0  0
    0.8694    0.7896    0.5495 C   0  0  0  0  0  0  0  0  0  0  0  0
   -0.4835    0.3558    1.1329 C   0  0  0  0  0  0  0  0  0  0  0  0
   -1.3962   -0.2119    0.0729 C   0  0  0  0  0  0  0  0  0  0  0  0
   -1.6166   -1.4051   -0.0138 O   0  0  0  0  0  0  0  0  0  0  0  0
   -2.0191    0.7877   -0.8549 C   0  0  0  0  0  0  0  0  0  0  0  0
    2.8594    0.8581   -1.3803 H   0  0  0  0  0  0  0  0  0  0  0  0
    3.5941    0.4463    0.1701 H   0  0  0  0  0  0  0  0  0  0  0  0
    3.4884   -0.7667   -1.1065 H   0  0  0  0  0  0  0  0  0  0  0  0
    1.7466   -1.1730    0.6168 H   0  0  0  0  0  0  0  0  0  0  0  0
    1.0134   -0.7709   -0.9300 H   0  0  0  0  0  0  0  0  0  0  0  0
    0.7213    1.5876   -0.1795 H   0  0  0  0  0  0  0  0  0  0  0  0
    1.4790    1.1905    1.3613 H   0  0  0  0  0  0  0  0  0  0  0  0
   -0.3170   -0.4123    1.8903 H   0  0  0  0  0  0  0  0  0  0  0  0
   -0.9648    1.2190    1.5926 H   0  0  0  0  0  0  0  0  0  0  0  0
   -1.2581    1.4416   -1.2703 H   0  0  0  0  0  0  0  0  0  0  0  0
   -2.5525    0.2799   -1.6536 H   0  0  0  0  0  0  0  0  0  0  0  0
   -2.7167    1.4023   -0.2903 H   0  0  0  0  0  0  0  0  0  0  0  0
  1  2  1  0  0  0  0
  2  3  1  0  0  0  0
  3  4  1  0  0  0  0
  4  5  1  0  0  0  0
  5  6  2  0  0  0  0
  5  7  1  0  0  0  0
  1  8  1  0  0  0  0
  1  9  1  0  0  0  0
  1 10  1  0  0  0  0
  2 11  1  0  0  0  0
  2 12  1  0  0  0  0
  3 13  1  0  0  0  0
  3 14  1  0  0  0  0
  4 15  1  0  0  0  0
  4 16  1  0  0  0  0
  7 17  1  0  0  0  0
  7 18  1  0  0  0  0
  7 19  1  0  0  0  0
M  END
