 xtb: 6.7.1 (edcfbbe)
          04112516213D

 19 18  0     0  0            999 V2000
    1.8061   -0.5184   -1.0197 C   0  0  0  0  0  0  0  0  0  0  0  0
    2.0362    0.2860    0.2536 C   0  0  0  0  0  0  0  0  0  0  0  0
    0.8498    1.1667    0.6465 C   0  0  0  0  0  0  0  0  0  0  0  0
   -0.3649    0.3654    1.1311 C   0  0  0  0  0  0  0  0  0  0  0  0
   -1.1829   -0.3061    0.0578 C   0  0  0  0  0  0  0  0  0  0  0  0
   -1.4912   -1.4825    0.1333 O   0  0  0  0  0  0  0  0  0  0  0  0
   -1.6475    0.5645   -1.0734 C   0  0  0  0  0  0  0  0  0  0  0  0
    1.6213    0.1427   -1.8638 H   0  0  0  0  0  0  0  0  0  0  0  0
    2.6826   -1.1206   -1.2470 H   0  0  0  0  0  0  0  0  0  0  0  0
    0.9578   -1.1902   -0.9091 H   0  0  0  0  0  0  0  0  0  0  0  0
    2.9091    0.9268    0.1112 H   0  0  0  0  0  0  0  0  0  0  0  0
    2.2606   -0.3989    1.0743 H   0  0  0  0  0  0  0  0  0  0  0  0
    0.5716    1.8039   -0.1923 H   0  0  0  0  0  0  0  0  0  0  0  0
    1.1664    1.8148    1.4657 H   0  0  0  0  0  0  0  0  0  0  0  0
   -0.0471   -0.3944    1.8485 H   0  0  0  0  0  0  0  0  0  0  0  0
   -1.0499    1.0464    1.6430 H   0  0  0  0  0  0  0  0  0  0  0  0
   -0.8385    0.6665   -1.7933 H   0  0  0  0  0  0  0  0  0  0  0  0
   -2.4912    0.0969   -1.5739 H   0  0  0  0  0  0  0  0  0  0  0  0
   -1.9163    1.5528   -0.7149 H   0  0  0  0  0  0  0  0  0  0  0  0
  1  2  1  0  0  0  0
  2  3  1  0  0  0  0
  3  4  1  0  0  0  0
  4  5  1  0  0  0  0
  5  6  2  0  0  0  0
  5  7  1  0  0  0  0
  1  8  1  0  0  0  0
  1  9  1  0  0  0  0
  1 10  1  0  0  0  0
  2 11  1  0  0  0  0
  2 12  1  0  0  0  0
  3 13  1  0  0  0  0
  3 14  1  0  0  0  0
  4 15  1  0  0  0  0
  4 16  1  0  0  0  0
  7 17  1  0  0  0  0
  7 18  1  0  0  0  0
  7 19  1  0  0  0  0
M  END
