 xtb: 6.7.1 (edcfbbe)
          04112516053D

 26 26  0     0  0            999 V2000
   -3.4463    0.1599    1.2811 C   0  0  0  0  0  0  0  0  0  0  0  0
   -3.1442   -0.9420    0.2737 C   0  0  0  0  0  0  0  0  0  0  0  0
   -2.4205   -0.4060   -0.9695 C   0  0  0  0  0  0  0  0  0  0  0  0
   -1.0585    0.1291   -0.6291 C   0  0  0  0  0  0  0  0  0  0  0  0
   -0.8267    1.4886   -0.5058 C   0  0  0  0  0  0  0  0  0  0  0  0
    0.4261    1.9652   -0.1555 C   0  0  0  0  0  0  0  0  0  0  0  0
    1.4676    1.0856    0.0782 C   0  0  0  0  0  0  0  0  0  0  0  0
    1.2444   -0.2956   -0.0462 C   0  0  0  0  0  0  0  0  0  0  0  0
   -0.0100   -0.7579   -0.3965 C   0  0  0  0  0  0  0  0  0  0  0  0
    2.3476   -1.0836    0.2024 O   0  0  0  0  0  0  0  0  0  0  0  0
    2.2084   -2.4848    0.0936 C   0  0  0  0  0  0  0  0  0  0  0  0
    2.6972    1.5657    0.4226 O   0  0  0  0  0  0  0  0  0  0  0  0
   -4.0831    0.9199    0.8342 H   0  0  0  0  0  0  0  0  0  0  0  0
   -3.9565   -0.2485    2.1500 H   0  0  0  0  0  0  0  0  0  0  0  0
   -2.5254    0.6351    1.6118 H   0  0  0  0  0  0  0  0  0  0  0  0
   -4.0781   -1.4138   -0.0385 H   0  0  0  0  0  0  0  0  0  0  0  0
   -2.5243   -1.7053    0.7481 H   0  0  0  0  0  0  0  0  0  0  0  0
   -3.0231    0.3846   -1.4189 H   0  0  0  0  0  0  0  0  0  0  0  0
   -2.3226   -1.2159   -1.6953 H   0  0  0  0  0  0  0  0  0  0  0  0
   -1.6274    2.1896   -0.6841 H   0  0  0  0  0  0  0  0  0  0  0  0
    0.6161    3.0220   -0.0576 H   0  0  0  0  0  0  0  0  0  0  0  0
   -0.1924   -1.8162   -0.4973 H   0  0  0  0  0  0  0  0  0  0  0  0
    1.4733   -2.8642    0.8080 H   0  0  0  0  0  0  0  0  0  0  0  0
    3.1903   -2.8895    0.3284 H   0  0  0  0  0  0  0  0  0  0  0  0
    1.9235   -2.7745   -0.9211 H   0  0  0  0  0  0  0  0  0  0  0  0
    3.3009    0.8155    0.5448 H   0  0  0  0  0  0  0  0  0  0  0  0
  1  2  1  0  0  0  0
  2  3  1  0  0  0  0
  3  4  1  0  0  0  0
  4  5  4  0  0  0  0
  5  6  4  0  0  0  0
  6  7  4  0  0  0  0
  7  8  4  0  0  0  0
  4  9  4  0  0  0  0
  8  9  4  0  0  0  0
  8 10  1  0  0  0  0
 10 11  1  0  0  0  0
  7 12  1  0  0  0  0
  1 13  1  0  0  0  0
  1 14  1  0  0  0  0
  1 15  1  0  0  0  0
  2 16  1  0  0  0  0
  2 17  1  0  0  0  0
  3 18  1  0  0  0  0
  3 19  1  0  0  0  0
  5 20  1  0  0  0  0
  6 21  1  0  0  0  0
  9 22  1  0  0  0  0
 11 23  1  0  0  0  0
 11 24  1  0  0  0  0
 11 25  1  0  0  0  0
 12 26  1  0  0  0  0
M  END
