 xtb: 6.7.1 (edcfbbe)
          04112516263D

 20 19  0     0  0            999 V2000
   -3.5749   -1.0505    0.4161 C   0  0  0  0  0  0  0  0  0  0  0  0
   -2.6743    0.1262    0.0595 C   0  0  0  0  0  0  0  0  0  0  0  0
   -1.1976   -0.2621    0.1096 C   0  0  0  0  0  0  0  0  0  0  0  0
   -0.2998    0.9177   -0.2501 C   0  0  0  0  0  0  0  0  0  0  0  0
    1.1748    0.6138   -0.2206 C   0  0  0  0  0  0  0  0  0  0  0  0
    2.0379    1.4239   -0.4984 O   0  0  0  0  0  0  0  0  0  0  0  0
    1.4475   -0.6319    0.1415 O   0  0  0  0  0  0  0  0  0  0  0  0
    2.8231   -1.0159    0.2019 C   0  0  0  0  0  0  0  0  0  0  0  0
   -3.4220   -1.8716   -0.2803 H   0  0  0  0  0  0  0  0  0  0  0  0
   -3.3551   -1.4077    1.4194 H   0  0  0  0  0  0  0  0  0  0  0  0
   -4.6205   -0.7564    0.3770 H   0  0  0  0  0  0  0  0  0  0  0  0
   -2.9215    0.4812   -0.9430 H   0  0  0  0  0  0  0  0  0  0  0  0
   -2.8565    0.9465    0.7566 H   0  0  0  0  0  0  0  0  0  0  0  0
   -1.0129   -1.0833   -0.5848 H   0  0  0  0  0  0  0  0  0  0  0  0
   -0.9477   -0.6161    1.1109 H   0  0  0  0  0  0  0  0  0  0  0  0
   -0.4665    1.7518    0.4361 H   0  0  0  0  0  0  0  0  0  0  0  0
   -0.5299    1.2875   -1.2523 H   0  0  0  0  0  0  0  0  0  0  0  0
    3.3537   -0.3915    0.9216 H   0  0  0  0  0  0  0  0  0  0  0  0
    3.2871   -0.8977   -0.7779 H   0  0  0  0  0  0  0  0  0  0  0  0
    2.8221   -2.0560    0.5117 H   0  0  0  0  0  0  0  0  0  0  0  0
  1  2  1  0  0  0  0
  2  3  1  0  0  0  0
  3  4  1  0  0  0  0
  4  5  1  0  0  0  0
  5  6  2  0  0  0  0
  5  7  1  0  0  0  0
  7  8  1  0  0  0  0
  1  9  1  0  0  0  0
  1 10  1  0  0  0  0
  1 11  1  0  0  0  0
  2 12  1  0  0  0  0
  2 13  1  0  0  0  0
  3 14  1  0  0  0  0
  3 15  1  0  0  0  0
  4 16  1  0  0  0  0
  4 17  1  0  0  0  0
  8 18  1  0  0  0  0
  8 19  1  0  0  0  0
  8 20  1  0  0  0  0
M  END
