 xtb: 6.7.1 (edcfbbe)
          04112514343D

 17 16  0     0  0            999 V2000
   -2.1400   -1.7505   -0.4771 C   0  0  0  0  0  0  0  0  0  0  0  0
   -1.4294   -0.4069   -0.3431 C   0  0  0  0  0  0  0  0  0  0  0  0
   -2.4248    0.7176   -0.0698 C   0  0  0  0  0  0  0  0  0  0  0  0
   -0.4042   -0.4946    0.7929 C   0  0  0  0  0  0  0  0  0  0  0  0
    0.3559    0.7089    0.9317 O   0  0  0  0  0  0  0  0  0  0  0  0
    1.4133    0.8797    0.1087 N   0  0  0  0  0  0  0  0  0  0  0  0
    1.6721    0.0132   -0.6694 O   0  0  0  0  0  0  0  0  0  0  0  0
    1.9875    1.9139    0.2681 O   0  0  0  0  0  0  0  0  0  0  0  0
   -2.8727   -1.7027   -1.2772 H   0  0  0  0  0  0  0  0  0  0  0  0
   -2.6538   -2.0012    0.4471 H   0  0  0  0  0  0  0  0  0  0  0  0
   -1.4302   -2.5403   -0.7077 H   0  0  0  0  0  0  0  0  0  0  0  0
   -0.8940   -0.1971   -1.2755 H   0  0  0  0  0  0  0  0  0  0  0  0
   -1.9082    1.6613    0.0895 H   0  0  0  0  0  0  0  0  0  0  0  0
   -3.0114    0.4929    0.8174 H   0  0  0  0  0  0  0  0  0  0  0  0
   -3.1014    0.8334   -0.9118 H   0  0  0  0  0  0  0  0  0  0  0  0
   -0.9019   -0.5954    1.7572 H   0  0  0  0  0  0  0  0  0  0  0  0
    0.2783   -1.3333    0.6305 H   0  0  0  0  0  0  0  0  0  0  0  0
  1  2  1  0  0  0  0
  2  3  1  0  0  0  0
  2  4  1  0  0  0  0
  4  5  1  0  0  0  0
  5  6  1  0  0  0  0
  6  7  4  0  0  0  0
  6  8  4  0  0  0  0
  1  9  1  0  0  0  0
  1 10  1  0  0  0  0
  1 11  1  0  0  0  0
  2 12  1  0  0  0  0
  3 13  1  0  0  0  0
  3 14  1  0  0  0  0
  3 15  1  0  0  0  0
  4 16  1  0  0  0  0
  4 17  1  0  0  0  0
M  END
