 xtb: 6.7.1 (edcfbbe)
          04112516093D

 19 18  0     0  0            999 V2000
    2.8191    1.0147   -0.1991 C   0  0  0  0  0  0  0  0  0  0  0  0
    2.2953   -0.3603    0.1999 C   0  0  0  0  0  0  0  0  0  0  0  0
    0.8164   -0.3513    0.5873 C   0  0  0  0  0  0  0  0  0  0  0  0
   -0.1046   -0.0312   -0.6013 C   0  0  0  0  0  0  0  0  0  0  0  0
   -1.5391   -0.1749   -0.1602 C   0  0  0  0  0  0  0  0  0  0  0  0
   -2.1291   -1.2370   -0.2233 O   0  0  0  0  0  0  0  0  0  0  0  0
   -2.1721    1.0704    0.3827 C   0  0  0  0  0  0  0  0  0  0  0  0
    3.8909    0.9692   -0.3749 H   0  0  0  0  0  0  0  0  0  0  0  0
    2.3434    1.3660   -1.1105 H   0  0  0  0  0  0  0  0  0  0  0  0
    2.6327    1.7371    0.5922 H   0  0  0  0  0  0  0  0  0  0  0  0
    2.8675   -0.7222    1.0567 H   0  0  0  0  0  0  0  0  0  0  0  0
    2.4501   -1.0628   -0.6212 H   0  0  0  0  0  0  0  0  0  0  0  0
    0.6569    0.3817    1.3805 H   0  0  0  0  0  0  0  0  0  0  0  0
    0.5439   -1.3340    0.9797 H   0  0  0  0  0  0  0  0  0  0  0  0
    0.0796    0.9818   -0.9526 H   0  0  0  0  0  0  0  0  0  0  0  0
    0.0952   -0.7461   -1.4010 H   0  0  0  0  0  0  0  0  0  0  0  0
   -2.3514    1.7537   -0.4452 H   0  0  0  0  0  0  0  0  0  0  0  0
   -3.1178    0.8399    0.8653 H   0  0  0  0  0  0  0  0  0  0  0  0
   -1.4983    1.5593    1.0804 H   0  0  0  0  0  0  0  0  0  0  0  0
  1  2  1  0  0  0  0
  2  3  1  0  0  0  0
  3  4  1  0  0  0  0
  4  5  1  0  0  0  0
  5  6  2  0  0  0  0
  5  7  1  0  0  0  0
  1  8  1  0  0  0  0
  1  9  1  0  0  0  0
  1 10  1  0  0  0  0
  2 11  1  0  0  0  0
  2 12  1  0  0  0  0
  3 13  1  0  0  0  0
  3 14  1  0  0  0  0
  4 15  1  0  0  0  0
  4 16  1  0  0  0  0
  7 17  1  0  0  0  0
  7 18  1  0  0  0  0
  7 19  1  0  0  0  0
M  END
