 xtb: 6.7.1 (edcfbbe)
          04112516423D

 26 25  0     0  0            999 V2000
    3.1801   -0.6180   -1.2449 C   0  0  0  0  0  0  0  0  0  0  0  0
    1.9061   -0.5486   -0.4134 C   0  0  0  0  0  0  0  0  0  0  0  0
    1.8011   -1.7613    0.5124 C   0  0  0  0  0  0  0  0  0  0  0  0
    0.7031   -0.4064   -1.2848 C   0  0  0  0  0  0  0  0  0  0  0  0
   -0.5242   -0.3229   -0.9942 N   0  0  0  0  0  0  0  0  0  0  0  0
   -0.8641   -0.3813    0.3729 O   0  0  0  0  0  0  0  0  0  0  0  0
   -2.1995   -0.2342    0.6465 C   0  0  0  0  0  0  0  0  0  0  0  0
   -2.5290   -0.3001    1.8165 O   0  0  0  0  0  0  0  0  0  0  0  0
   -2.9957   -0.0332   -0.3954 N   0  0  0  0  0  0  0  0  0  0  0  0
   -4.4255    0.1347   -0.2730 C   0  0  0  0  0  0  0  0  0  0  0  0
    1.9623    0.9392    0.7196 S   0  0  0  0  0  0  0  0  0  0  0  0
    1.9054    2.3282   -0.4560 C   0  0  0  0  0  0  0  0  0  0  0  0
    4.0467   -0.6074   -0.5891 H   0  0  0  0  0  0  0  0  0  0  0  0
    3.1894   -1.5400   -1.8221 H   0  0  0  0  0  0  0  0  0  0  0  0
    3.2514    0.2217   -1.9310 H   0  0  0  0  0  0  0  0  0  0  0  0
    0.9252   -1.6853    1.1524 H   0  0  0  0  0  0  0  0  0  0  0  0
    2.6844   -1.8118    1.1438 H   0  0  0  0  0  0  0  0  0  0  0  0
    1.7314   -2.6719   -0.0784 H   0  0  0  0  0  0  0  0  0  0  0  0
    0.8724   -0.3343   -2.3526 H   0  0  0  0  0  0  0  0  0  0  0  0
   -2.5716   -0.0167   -1.3144 H   0  0  0  0  0  0  0  0  0  0  0  0
   -4.9423   -0.6553   -0.8160 H   0  0  0  0  0  0  0  0  0  0  0  0
   -4.7215    1.1049   -0.6690 H   0  0  0  0  0  0  0  0  0  0  0  0
   -4.6823    0.0787    0.7830 H   0  0  0  0  0  0  0  0  0  0  0  0
    0.9753    2.3019   -1.0148 H   0  0  0  0  0  0  0  0  0  0  0  0
    2.7664    2.2969   -1.1145 H   0  0  0  0  0  0  0  0  0  0  0  0
    1.9433    3.2214    0.1588 H   0  0  0  0  0  0  0  0  0  0  0  0
  1  2  1  0  0  0  0
  2  3  1  0  0  0  0
  2  4  1  0  0  0  0
  4  5  2  0  0  0  0
  5  6  1  0  0  0  0
  6  7  1  0  0  0  0
  7  8  2  0  0  0  0
  7  9  4  0  0  0  0
  9 10  1  0  0  0  0
  2 11  1  0  0  0  0
 11 12  1  0  0  0  0
  1 13  1  0  0  0  0
  1 14  1  0  0  0  0
  1 15  1  0  0  0  0
  3 16  1  0  0  0  0
  3 17  1  0  0  0  0
  3 18  1  0  0  0  0
  4 19  1  0  0  0  0
  9 20  1  0  0  0  0
 10 21  1  0  0  0  0
 10 22  1  0  0  0  0
 10 23  1  0  0  0  0
 12 24  1  0  0  0  0
 12 25  1  0  0  0  0
 12 26  1  0  0  0  0
M  END
