 xtb: 6.7.1 (edcfbbe)
          04112516113D

 17 16  0     0  0            999 V2000
   -2.3698   -0.8747   -0.0037 C   0  0  0  0  0  0  0  0  0  0  0  0
   -1.6748    0.2889    0.6953 C   0  0  0  0  0  0  0  0  0  0  0  0
   -0.9093    1.2036   -0.2626 C   0  0  0  0  0  0  0  0  0  0  0  0
    0.2215    0.4876   -1.0094 C   0  0  0  0  0  0  0  0  0  0  0  0
    1.2404   -0.0675   -0.0515 C   0  0  0  0  0  0  0  0  0  0  0  0
    1.8054    0.5713    0.8115 O   0  0  0  0  0  0  0  0  0  0  0  0
    1.4720   -1.3572   -0.2457 O   0  0  0  0  0  0  0  0  0  0  0  0
   -3.0006   -0.5096   -0.8108 H   0  0  0  0  0  0  0  0  0  0  0  0
   -1.6461   -1.5738   -0.4142 H   0  0  0  0  0  0  0  0  0  0  0  0
   -2.9948   -1.4147    0.7032 H   0  0  0  0  0  0  0  0  0  0  0  0
   -0.9859   -0.0962    1.4515 H   0  0  0  0  0  0  0  0  0  0  0  0
   -2.4237    0.8916    1.2135 H   0  0  0  0  0  0  0  0  0  0  0  0
   -1.6000    1.6207   -0.9964 H   0  0  0  0  0  0  0  0  0  0  0  0
   -0.4765    2.0263    0.3101 H   0  0  0  0  0  0  0  0  0  0  0  0
    0.7334    1.2092   -1.6488 H   0  0  0  0  0  0  0  0  0  0  0  0
   -0.1589   -0.3246   -1.6257 H   0  0  0  0  0  0  0  0  0  0  0  0
    2.1402   -1.7214    0.3669 H   0  0  0  0  0  0  0  0  0  0  0  0
  1  2  1  0  0  0  0
  2  3  1  0  0  0  0
  3  4  1  0  0  0  0
  4  5  1  0  0  0  0
  5  6  2  0  0  0  0
  5  7  1  0  0  0  0
  1  8  1  0  0  0  0
  1  9  1  0  0  0  0
  1 10  1  0  0  0  0
  2 11  1  0  0  0  0
  2 12  1  0  0  0  0
  3 13  1  0  0  0  0
  3 14  1  0  0  0  0
  4 15  1  0  0  0  0
  4 16  1  0  0  0  0
  7 17  1  0  0  0  0
M  END
