 xtb: 6.7.1 (edcfbbe)
          04112516093D

 19 18  0     0  0            999 V2000
    3.3200    0.3924    0.5809 C   0  0  0  0  0  0  0  0  0  0  0  0
    2.1992    0.1561   -0.4249 C   0  0  0  0  0  0  0  0  0  0  0  0
    0.8323    0.1199    0.2567 C   0  0  0  0  0  0  0  0  0  0  0  0
   -0.2883   -0.1157   -0.7602 C   0  0  0  0  0  0  0  0  0  0  0  0
   -1.6568   -0.2422   -0.1394 C   0  0  0  0  0  0  0  0  0  0  0  0
   -2.3945   -1.1718   -0.4098 O   0  0  0  0  0  0  0  0  0  0  0  0
   -2.0575    0.8402    0.8179 C   0  0  0  0  0  0  0  0  0  0  0  0
    3.1793    1.3409    1.0938 H   0  0  0  0  0  0  0  0  0  0  0  0
    3.3375   -0.4004    1.3253 H   0  0  0  0  0  0  0  0  0  0  0  0
    4.2839    0.4129    0.0790 H   0  0  0  0  0  0  0  0  0  0  0  0
    2.3711   -0.7891   -0.9440 H   0  0  0  0  0  0  0  0  0  0  0  0
    2.2089    0.9516   -1.1727 H   0  0  0  0  0  0  0  0  0  0  0  0
    0.6721    1.0640    0.7774 H   0  0  0  0  0  0  0  0  0  0  0  0
    0.8216   -0.6834    0.9966 H   0  0  0  0  0  0  0  0  0  0  0  0
   -0.3230    0.7253   -1.4573 H   0  0  0  0  0  0  0  0  0  0  0  0
   -0.0887   -1.0225   -1.3352 H   0  0  0  0  0  0  0  0  0  0  0  0
   -3.1318    0.8136    0.9790 H   0  0  0  0  0  0  0  0  0  0  0  0
   -1.5602    0.6607    1.7691 H   0  0  0  0  0  0  0  0  0  0  0  0
   -1.7511    1.8139    0.4494 H   0  0  0  0  0  0  0  0  0  0  0  0
  1  2  1  0  0  0  0
  2  3  1  0  0  0  0
  3  4  1  0  0  0  0
  4  5  1  0  0  0  0
  5  6  2  0  0  0  0
  5  7  1  0  0  0  0
  1  8  1  0  0  0  0
  1  9  1  0  0  0  0
  1 10  1  0  0  0  0
  2 11  1  0  0  0  0
  2 12  1  0  0  0  0
  3 13  1  0  0  0  0
  3 14  1  0  0  0  0
  4 15  1  0  0  0  0
  4 16  1  0  0  0  0
  7 17  1  0  0  0  0
  7 18  1  0  0  0  0
  7 19  1  0  0  0  0
M  END
