 xtb: 6.7.1 (edcfbbe)
          04112514143D

 16 15  0     0  0            999 V2000
   -2.4448   -0.9318   -0.2605 C   0  0  0  0  0  0  0  0  0  0  0  0
   -1.9222    0.2400    0.3388 O   0  0  0  0  0  0  0  0  0  0  0  0
   -0.6975    0.6821   -0.1983 C   0  0  0  0  0  0  0  0  0  0  0  0
    0.5011   -0.1851    0.2043 C   0  0  0  0  0  0  0  0  0  0  0  0
    1.6733    0.4886   -0.2015 O   0  0  0  0  0  0  0  0  0  0  0  0
    2.8558   -0.2102    0.1313 C   0  0  0  0  0  0  0  0  0  0  0  0
   -1.8461   -1.8122   -0.0123 H   0  0  0  0  0  0  0  0  0  0  0  0
   -2.4949   -0.8210   -1.3481 H   0  0  0  0  0  0  0  0  0  0  0  0
   -3.4471   -1.0487    0.1442 H   0  0  0  0  0  0  0  0  0  0  0  0
   -0.7508    0.7405   -1.2936 H   0  0  0  0  0  0  0  0  0  0  0  0
   -0.5454    1.6872    0.2008 H   0  0  0  0  0  0  0  0  0  0  0  0
    0.4532   -1.1724   -0.2786 H   0  0  0  0  0  0  0  0  0  0  0  0
    0.4971   -0.3290    1.2952 H   0  0  0  0  0  0  0  0  0  0  0  0
    2.9382   -0.3441    1.2151 H   0  0  0  0  0  0  0  0  0  0  0  0
    3.6788    0.4007   -0.2296 H   0  0  0  0  0  0  0  0  0  0  0  0
    2.8797   -1.1917   -0.3542 H   0  0  0  0  0  0  0  0  0  0  0  0
  1  2  1  0  0  0  0
  2  3  1  0  0  0  0
  3  4  1  0  0  0  0
  4  5  1  0  0  0  0
  5  6  1  0  0  0  0
  1  7  1  0  0  0  0
  1  8  1  0  0  0  0
  1  9  1  0  0  0  0
  3 10  1  0  0  0  0
  3 11  1  0  0  0  0
  4 12  1  0  0  0  0
  4 13  1  0  0  0  0
  6 14  1  0  0  0  0
  6 15  1  0  0  0  0
  6 16  1  0  0  0  0
M  END
