 xtb: 6.7.1 (edcfbbe)
          04112516593D

 20 19  0     0  0            999 V2000
   -2.3839   -0.5354    1.1382 C   0  0  0  0  0  0  0  0  0  0  0  0
   -2.1129   -0.5783   -0.3621 C   0  0  0  0  0  0  0  0  0  0  0  0
   -1.6883    0.7726   -0.9410 C   0  0  0  0  0  0  0  0  0  0  0  0
   -0.3610    1.2892   -0.3905 C   0  0  0  0  0  0  0  0  0  0  0  0
    0.7104    0.4015   -0.7408 O   0  0  0  0  0  0  0  0  0  0  0  0
    1.3262   -0.2847    0.2129 C   0  0  0  0  0  0  0  0  0  0  0  0
    1.0632   -0.1878    1.3950 O   0  0  0  0  0  0  0  0  0  0  0  0
    2.3875   -1.1805   -0.3533 C   0  0  0  0  0  0  0  0  0  0  0  0
   -2.8053   -1.4814    1.4692 H   0  0  0  0  0  0  0  0  0  0  0  0
   -1.4658   -0.3672    1.6975 H   0  0  0  0  0  0  0  0  0  0  0  0
   -3.0879    0.2582    1.3770 H   0  0  0  0  0  0  0  0  0  0  0  0
   -1.3375   -1.3203   -0.5681 H   0  0  0  0  0  0  0  0  0  0  0  0
   -3.0193   -0.8977   -0.8798 H   0  0  0  0  0  0  0  0  0  0  0  0
   -1.5968    0.6808   -2.0244 H   0  0  0  0  0  0  0  0  0  0  0  0
   -2.4495    1.5214   -0.7199 H   0  0  0  0  0  0  0  0  0  0  0  0
   -0.1127    2.2514   -0.8438 H   0  0  0  0  0  0  0  0  0  0  0  0
   -0.3907    1.3918    0.6972 H   0  0  0  0  0  0  0  0  0  0  0  0
    2.4181   -1.0824   -1.4328 H   0  0  0  0  0  0  0  0  0  0  0  0
    2.1714   -2.2073   -0.0691 H   0  0  0  0  0  0  0  0  0  0  0  0
    3.3465   -0.9104    0.0812 H   0  0  0  0  0  0  0  0  0  0  0  0
  1  2  1  0  0  0  0
  2  3  1  0  0  0  0
  3  4  1  0  0  0  0
  4  5  1  0  0  0  0
  5  6  1  0  0  0  0
  6  7  2  0  0  0  0
  6  8  1  0  0  0  0
  1  9  1  0  0  0  0
  1 10  1  0  0  0  0
  1 11  1  0  0  0  0
  2 12  1  0  0  0  0
  2 13  1  0  0  0  0
  3 14  1  0  0  0  0
  3 15  1  0  0  0  0
  4 16  1  0  0  0  0
  4 17  1  0  0  0  0
  8 18  1  0  0  0  0
  8 19  1  0  0  0  0
  8 20  1  0  0  0  0
M  END
