 xtb: 6.7.1 (edcfbbe)
          04112516293D

 20 19  0     0  0            999 V2000
   -2.1406   -1.3038   -0.0878 C   0  0  0  0  0  0  0  0  0  0  0  0
   -2.5216    0.1689    0.0088 C   0  0  0  0  0  0  0  0  0  0  0  0
   -1.3587    1.1178   -0.2848 C   0  0  0  0  0  0  0  0  0  0  0  0
   -0.2555    1.0960    0.7720 C   0  0  0  0  0  0  0  0  0  0  0  0
    0.5355   -0.0992    0.7245 O   0  0  0  0  0  0  0  0  0  0  0  0
    1.5409   -0.1575   -0.1404 C   0  0  0  0  0  0  0  0  0  0  0  0
    1.8496    0.7601   -0.8738 O   0  0  0  0  0  0  0  0  0  0  0  0
    2.2317   -1.4876   -0.0937 C   0  0  0  0  0  0  0  0  0  0  0  0
   -1.7384   -1.5273   -1.0741 H   0  0  0  0  0  0  0  0  0  0  0  0
   -1.3902   -1.5577    0.6554 H   0  0  0  0  0  0  0  0  0  0  0  0
   -3.0148   -1.9293    0.0755 H   0  0  0  0  0  0  0  0  0  0  0  0
   -3.3185    0.3775   -0.7080 H   0  0  0  0  0  0  0  0  0  0  0  0
   -2.9092    0.3794    1.0073 H   0  0  0  0  0  0  0  0  0  0  0  0
   -0.9161    0.8800   -1.2550 H   0  0  0  0  0  0  0  0  0  0  0  0
   -1.7373    2.1396   -0.3332 H   0  0  0  0  0  0  0  0  0  0  0  0
    0.4117    1.9515    0.6254 H   0  0  0  0  0  0  0  0  0  0  0  0
   -0.6750    1.1130    1.7786 H   0  0  0  0  0  0  0  0  0  0  0  0
    3.2917   -1.3544   -0.2861 H   0  0  0  0  0  0  0  0  0  0  0  0
    1.8168   -2.1161   -0.8792 H   0  0  0  0  0  0  0  0  0  0  0  0
    2.0616   -1.9611    0.8671 H   0  0  0  0  0  0  0  0  0  0  0  0
  1  2  1  0  0  0  0
  2  3  1  0  0  0  0
  3  4  1  0  0  0  0
  4  5  1  0  0  0  0
  5  6  1  0  0  0  0
  6  7  2  0  0  0  0
  6  8  1  0  0  0  0
  1  9  1  0  0  0  0
  1 10  1  0  0  0  0
  1 11  1  0  0  0  0
  2 12  1  0  0  0  0
  2 13  1  0  0  0  0
  3 14  1  0  0  0  0
  3 15  1  0  0  0  0
  4 16  1  0  0  0  0
  4 17  1  0  0  0  0
  8 18  1  0  0  0  0
  8 19  1  0  0  0  0
  8 20  1  0  0  0  0
M  END
