 xtb: 6.7.1 (edcfbbe)
          04112516093D

 19 18  0     0  0            999 V2000
    2.8074    0.7540   -0.4492 C   0  0  0  0  0  0  0  0  0  0  0  0
    1.7785    0.5401    0.6558 C   0  0  0  0  0  0  0  0  0  0  0  0
    0.9330   -0.7148    0.4338 C   0  0  0  0  0  0  0  0  0  0  0  0
   -0.1005   -0.5853   -0.7061 C   0  0  0  0  0  0  0  0  0  0  0  0
   -1.4581   -0.2202   -0.1588 C   0  0  0  0  0  0  0  0  0  0  0  0
   -2.3343   -1.0557   -0.0298 O   0  0  0  0  0  0  0  0  0  0  0  0
   -1.6568    1.2083    0.2500 C   0  0  0  0  0  0  0  0  0  0  0  0
    3.4821   -0.0968   -0.5101 H   0  0  0  0  0  0  0  0  0  0  0  0
    2.3279    0.8773   -1.4168 H   0  0  0  0  0  0  0  0  0  0  0  0
    3.3967    1.6449   -0.2473 H   0  0  0  0  0  0  0  0  0  0  0  0
    1.1389    1.4197    0.7285 H   0  0  0  0  0  0  0  0  0  0  0  0
    2.3035    0.4350    1.6076 H   0  0  0  0  0  0  0  0  0  0  0  0
    0.4092   -0.9753    1.3566 H   0  0  0  0  0  0  0  0  0  0  0  0
    1.6036   -1.5430    0.2009 H   0  0  0  0  0  0  0  0  0  0  0  0
    0.2278    0.1668   -1.4207 H   0  0  0  0  0  0  0  0  0  0  0  0
   -0.1981   -1.5437   -1.2173 H   0  0  0  0  0  0  0  0  0  0  0  0
   -1.3139    1.8797   -0.5312 H   0  0  0  0  0  0  0  0  0  0  0  0
   -2.7048    1.3908    0.4719 H   0  0  0  0  0  0  0  0  0  0  0  0
   -1.0697    1.3987    1.1462 H   0  0  0  0  0  0  0  0  0  0  0  0
  1  2  1  0  0  0  0
  2  3  1  0  0  0  0
  3  4  1  0  0  0  0
  4  5  1  0  0  0  0
  5  6  2  0  0  0  0
  5  7  1  0  0  0  0
  1  8  1  0  0  0  0
  1  9  1  0  0  0  0
  1 10  1  0  0  0  0
  2 11  1  0  0  0  0
  2 12  1  0  0  0  0
  3 13  1  0  0  0  0
  3 14  1  0  0  0  0
  4 15  1  0  0  0  0
  4 16  1  0  0  0  0
  7 17  1  0  0  0  0
  7 18  1  0  0  0  0
  7 19  1  0  0  0  0
M  END
