 xtb: 6.7.1 (edcfbbe)
          04112516013D

 20 19  0     0  0            999 V2000
   -2.2491   -1.3040    0.2770 C   0  0  0  0  0  0  0  0  0  0  0  0
   -2.6144    0.1722    0.3744 C   0  0  0  0  0  0  0  0  0  0  0  0
   -1.7086    1.0743   -0.4652 C   0  0  0  0  0  0  0  0  0  0  0  0
   -0.2710    1.1402    0.0346 C   0  0  0  0  0  0  0  0  0  0  0  0
    0.4452   -0.0188   -0.4167 O   0  0  0  0  0  0  0  0  0  0  0  0
    1.6963   -0.1711   -0.0076 C   0  0  0  0  0  0  0  0  0  0  0  0
    2.2551    0.6210    0.7260 O   0  0  0  0  0  0  0  0  0  0  0  0
    2.3115   -1.4281   -0.5456 C   0  0  0  0  0  0  0  0  0  0  0  0
   -2.2813   -1.6347   -0.7581 H   0  0  0  0  0  0  0  0  0  0  0  0
   -1.2481   -1.4819    0.6597 H   0  0  0  0  0  0  0  0  0  0  0  0
   -2.9485   -1.9042    0.8541 H   0  0  0  0  0  0  0  0  0  0  0  0
   -3.6421    0.3066    0.0317 H   0  0  0  0  0  0  0  0  0  0  0  0
   -2.5687    0.4911    1.4180 H   0  0  0  0  0  0  0  0  0  0  0  0
   -1.6950    0.7244   -1.4980 H   0  0  0  0  0  0  0  0  0  0  0  0
   -2.1083    2.0885   -0.4509 H   0  0  0  0  0  0  0  0  0  0  0  0
    0.2425    2.0245   -0.3575 H   0  0  0  0  0  0  0  0  0  0  0  0
   -0.2223    1.1797    1.1280 H   0  0  0  0  0  0  0  0  0  0  0  0
    1.6955   -1.8297   -1.3426 H   0  0  0  0  0  0  0  0  0  0  0  0
    2.3844   -2.1523    0.2629 H   0  0  0  0  0  0  0  0  0  0  0  0
    3.3169   -1.2156   -0.8969 H   0  0  0  0  0  0  0  0  0  0  0  0
  1  2  1  0  0  0  0
  2  3  1  0  0  0  0
  3  4  1  0  0  0  0
  4  5  1  0  0  0  0
  5  6  1  0  0  0  0
  6  7  2  0  0  0  0
  6  8  1  0  0  0  0
  1  9  1  0  0  0  0
  1 10  1  0  0  0  0
  1 11  1  0  0  0  0
  2 12  1  0  0  0  0
  2 13  1  0  0  0  0
  3 14  1  0  0  0  0
  3 15  1  0  0  0  0
  4 16  1  0  0  0  0
  4 17  1  0  0  0  0
  8 18  1  0  0  0  0
  8 19  1  0  0  0  0
  8 20  1  0  0  0  0
M  END
