 xtb: 6.7.1 (edcfbbe)
          04112516203D

 17 16  0     0  0            999 V2000
   -2.5407   -0.8478    0.5846 C   0  0  0  0  0  0  0  0  0  0  0  0
   -2.2204   -0.0037   -0.6435 C   0  0  0  0  0  0  0  0  0  0  0  0
   -1.8701    1.4459   -0.3030 C   0  0  0  0  0  0  0  0  0  0  0  0
   -0.6074    1.6414    0.5397 C   0  0  0  0  0  0  0  0  0  0  0  0
    0.6870    1.2860   -0.1732 C   0  0  0  0  0  0  0  0  0  0  0  0
    1.1852   -0.6209   -0.0118 Br  0  0  0  0  0  0  0  0  0  0  0  0
   -3.3064   -0.3668    1.1895 H   0  0  0  0  0  0  0  0  0  0  0  0
   -1.6572   -1.0012    1.1990 H   0  0  0  0  0  0  0  0  0  0  0  0
   -2.9052   -1.8258    0.2809 H   0  0  0  0  0  0  0  0  0  0  0  0
   -1.4069   -0.4695   -1.2012 H   0  0  0  0  0  0  0  0  0  0  0  0
   -3.0937    0.0094   -1.2998 H   0  0  0  0  0  0  0  0  0  0  0  0
   -1.7576    2.0078   -1.2337 H   0  0  0  0  0  0  0  0  0  0  0  0
   -2.7074    1.8828    0.2454 H   0  0  0  0  0  0  0  0  0  0  0  0
   -0.5415    2.7012    0.7993 H   0  0  0  0  0  0  0  0  0  0  0  0
   -0.6866    1.0834    1.4734 H   0  0  0  0  0  0  0  0  0  0  0  0
    1.5349    1.8164    0.2559 H   0  0  0  0  0  0  0  0  0  0  0  0
    0.6300    1.4816   -1.2425 H   0  0  0  0  0  0  0  0  0  0  0  0
  1  2  1  0  0  0  0
  2  3  1  0  0  0  0
  3  4  1  0  0  0  0
  4  5  1  0  0  0  0
  5  6  1  0  0  0  0
  1  7  1  0  0  0  0
  1  8  1  0  0  0  0
  1  9  1  0  0  0  0
  2 10  1  0  0  0  0
  2 11  1  0  0  0  0
  3 12  1  0  0  0  0
  3 13  1  0  0  0  0
  4 14  1  0  0  0  0
  4 15  1  0  0  0  0
  5 16  1  0  0  0  0
  5 17  1  0  0  0  0
M  END
