 xtb: 6.7.1 (edcfbbe)
          04112516153D

 26 25  0     0  0            999 V2000
    0.5628    0.2648   -1.2849 C   0  0  0  0  0  0  0  0  0  0  0  0
    1.4589   -0.1692   -0.1353 C   0  0  0  0  0  0  0  0  0  0  0  0
    2.4097   -1.2940   -0.5502 C   0  0  0  0  0  0  0  0  0  0  0  0
    0.7550   -0.6401    1.1019 C   0  0  0  0  0  0  0  0  0  0  0  0
   -0.3921   -1.1001    1.3366 N   0  0  0  0  0  0  0  0  0  0  0  0
   -1.3117   -1.2564    0.2602 O   0  0  0  0  0  0  0  0  0  0  0  0
   -2.3050   -0.3227    0.1842 C   0  0  0  0  0  0  0  0  0  0  0  0
   -2.2608    0.7533    0.7496 O   0  0  0  0  0  0  0  0  0  0  0  0
   -3.2690   -0.7603   -0.6258 N   0  0  0  0  0  0  0  0  0  0  0  0
   -4.4312    0.0307   -0.9648 C   0  0  0  0  0  0  0  0  0  0  0  0
    2.4214    1.3112    0.4756 S   0  0  0  0  0  0  0  0  0  0  0  0
    3.7089    1.5110   -0.7963 C   0  0  0  0  0  0  0  0  0  0  0  0
   -0.1732    0.9899   -0.9389 H   0  0  0  0  0  0  0  0  0  0  0  0
    1.1601    0.7306   -2.0656 H   0  0  0  0  0  0  0  0  0  0  0  0
    0.0475   -0.5928   -1.7118 H   0  0  0  0  0  0  0  0  0  0  0  0
    3.1394   -1.4871    0.2322 H   0  0  0  0  0  0  0  0  0  0  0  0
    2.9247   -1.0304   -1.4696 H   0  0  0  0  0  0  0  0  0  0  0  0
    1.8346   -2.2019   -0.7238 H   0  0  0  0  0  0  0  0  0  0  0  0
    1.3684   -0.6330    1.9968 H   0  0  0  0  0  0  0  0  0  0  0  0
   -3.1818   -1.6880   -1.0121 H   0  0  0  0  0  0  0  0  0  0  0  0
   -4.4640    0.2096   -2.0388 H   0  0  0  0  0  0  0  0  0  0  0  0
   -4.3535    0.9806   -0.4400 H   0  0  0  0  0  0  0  0  0  0  0  0
   -5.3382   -0.4838   -0.6512 H   0  0  0  0  0  0  0  0  0  0  0  0
    3.2554    1.5783   -1.7793 H   0  0  0  0  0  0  0  0  0  0  0  0
    4.4198    0.6947   -0.7376 H   0  0  0  0  0  0  0  0  0  0  0  0
    4.1981    2.4478   -0.5524 H   0  0  0  0  0  0  0  0  0  0  0  0
  1  2  1  0  0  0  0
  2  3  1  0  0  0  0
  2  4  1  0  0  0  0
  4  5  2  0  0  0  0
  5  6  1  0  0  0  0
  6  7  1  0  0  0  0
  7  8  2  0  0  0  0
  7  9  4  0  0  0  0
  9 10  1  0  0  0  0
  2 11  1  0  0  0  0
 11 12  1  0  0  0  0
  1 13  1  0  0  0  0
  1 14  1  0  0  0  0
  1 15  1  0  0  0  0
  3 16  1  0  0  0  0
  3 17  1  0  0  0  0
  3 18  1  0  0  0  0
  4 19  1  0  0  0  0
  9 20  1  0  0  0  0
 10 21  1  0  0  0  0
 10 22  1  0  0  0  0
 10 23  1  0  0  0  0
 12 24  1  0  0  0  0
 12 25  1  0  0  0  0
 12 26  1  0  0  0  0
M  END
