 xtb: 6.7.1 (edcfbbe)
          04112516213D

 19 18  0     0  0            999 V2000
   -2.7368   -0.9267    0.2592 C   0  0  0  0  0  0  0  0  0  0  0  0
   -1.3131   -0.5497   -0.1346 C   0  0  0  0  0  0  0  0  0  0  0  0
   -1.0962    0.9602   -0.0739 C   0  0  0  0  0  0  0  0  0  0  0  0
    0.2900    1.4032   -0.5417 C   0  0  0  0  0  0  0  0  0  0  0  0
    1.4302    0.9528    0.3838 C   0  0  0  0  0  0  0  0  0  0  0  0
    1.8385   -0.4184    0.1563 C   0  0  0  0  0  0  0  0  0  0  0  0
    2.2074   -1.5383   -0.0515 C   0  0  0  0  0  0  0  0  0  0  0  0
   -3.4554   -0.4606   -0.4116 H   0  0  0  0  0  0  0  0  0  0  0  0
   -2.9515   -0.5964    1.2732 H   0  0  0  0  0  0  0  0  0  0  0  0
   -2.8726   -2.0044    0.2134 H   0  0  0  0  0  0  0  0  0  0  0  0
   -0.6083   -1.0494    0.5316 H   0  0  0  0  0  0  0  0  0  0  0  0
   -1.1102   -0.9013   -1.1489 H   0  0  0  0  0  0  0  0  0  0  0  0
   -1.2588    1.3052    0.9505 H   0  0  0  0  0  0  0  0  0  0  0  0
   -1.8444    1.4465   -0.7057 H   0  0  0  0  0  0  0  0  0  0  0  0
    0.3016    2.4946   -0.5866 H   0  0  0  0  0  0  0  0  0  0  0  0
    0.4734    1.0252   -1.5500 H   0  0  0  0  0  0  0  0  0  0  0  0
    1.1252    1.0665    1.4275 H   0  0  0  0  0  0  0  0  0  0  0  0
    2.3032    1.5898    0.2149 H   0  0  0  0  0  0  0  0  0  0  0  0
    2.5133   -2.5262   -0.2249 H   0  0  0  0  0  0  0  0  0  0  0  0
  1  2  1  0  0  0  0
  2  3  1  0  0  0  0
  3  4  1  0  0  0  0
  4  5  1  0  0  0  0
  5  6  1  0  0  0  0
  6  7  3  0  0  0  0
  1  8  1  0  0  0  0
  1  9  1  0  0  0  0
  1 10  1  0  0  0  0
  2 11  1  0  0  0  0
  2 12  1  0  0  0  0
  3 13  1  0  0  0  0
  3 14  1  0  0  0  0
  4 15  1  0  0  0  0
  4 16  1  0  0  0  0
  5 17  1  0  0  0  0
  5 18  1  0  0  0  0
  7 19  1  0  0  0  0
M  END
