 xtb: 6.7.1 (edcfbbe)
          04112516293D

 20 19  0     0  0            999 V2000
   -2.1113   -1.3125    0.0665 C   0  0  0  0  0  0  0  0  0  0  0  0
   -2.5017    0.1543    0.2078 C   0  0  0  0  0  0  0  0  0  0  0  0
   -1.3213    1.0678    0.5408 C   0  0  0  0  0  0  0  0  0  0  0  0
   -0.3017    1.2055   -0.5888 C   0  0  0  0  0  0  0  0  0  0  0  0
    0.4826    0.0201   -0.7781 O   0  0  0  0  0  0  0  0  0  0  0  0
    1.5318   -0.1757    0.0120 C   0  0  0  0  0  0  0  0  0  0  0  0
    1.8824    0.6092    0.8694 O   0  0  0  0  0  0  0  0  0  0  0  0
    2.2166   -1.4732   -0.2989 C   0  0  0  0  0  0  0  0  0  0  0  0
   -1.4293   -1.4514   -0.7678 H   0  0  0  0  0  0  0  0  0  0  0  0
   -1.6233   -1.6636    0.9740 H   0  0  0  0  0  0  0  0  0  0  0  0
   -2.9955   -1.9216   -0.1046 H   0  0  0  0  0  0  0  0  0  0  0  0
   -2.9676    0.4970   -0.7179 H   0  0  0  0  0  0  0  0  0  0  0  0
   -3.2395    0.2498    1.0070 H   0  0  0  0  0  0  0  0  0  0  0  0
   -1.6967    2.0687    0.7580 H   0  0  0  0  0  0  0  0  0  0  0  0
   -0.8057    0.7042    1.4328 H   0  0  0  0  0  0  0  0  0  0  0  0
   -0.7964    1.3668   -1.5473 H   0  0  0  0  0  0  0  0  0  0  0  0
    0.3795    2.0341   -0.3699 H   0  0  0  0  0  0  0  0  0  0  0  0
    2.4395   -1.5186   -1.3609 H   0  0  0  0  0  0  0  0  0  0  0  0
    1.5439   -2.2931   -0.0591 H   0  0  0  0  0  0  0  0  0  0  0  0
    3.1256   -1.5560    0.2874 H   0  0  0  0  0  0  0  0  0  0  0  0
  1  2  1  0  0  0  0
  2  3  1  0  0  0  0
  3  4  1  0  0  0  0
  4  5  1  0  0  0  0
  5  6  1  0  0  0  0
  6  7  2  0  0  0  0
  6  8  1  0  0  0  0
  1  9  1  0  0  0  0
  1 10  1  0  0  0  0
  1 11  1  0  0  0  0
  2 12  1  0  0  0  0
  2 13  1  0  0  0  0
  3 14  1  0  0  0  0
  3 15  1  0  0  0  0
  4 16  1  0  0  0  0
  4 17  1  0  0  0  0
  8 18  1  0  0  0  0
  8 19  1  0  0  0  0
  8 20  1  0  0  0  0
M  END
