 xtb: 6.7.1 (edcfbbe)
          04112516333D

 17 16  0     0  0            999 V2000
   -3.8496   -1.1054    0.4190 C   0  0  0  0  0  0  0  0  0  0  0  0
   -3.5350    0.2018   -0.2997 C   0  0  0  0  0  0  0  0  0  0  0  0
   -2.2599    0.8777    0.2071 C   0  0  0  0  0  0  0  0  0  0  0  0
   -0.9972    0.0793   -0.1204 C   0  0  0  0  0  0  0  0  0  0  0  0
    0.2351    0.8539    0.3019 C   0  0  0  0  0  0  0  0  0  0  0  0
    1.8856   -0.1538   -0.0934 Br  0  0  0  0  0  0  0  0  0  0  0  0
   -3.8978   -0.9468    1.4939 H   0  0  0  0  0  0  0  0  0  0  0  0
   -3.0942   -1.8590    0.2136 H   0  0  0  0  0  0  0  0  0  0  0  0
   -4.8095   -1.4928    0.0870 H   0  0  0  0  0  0  0  0  0  0  0  0
   -3.4425    0.0145   -1.3714 H   0  0  0  0  0  0  0  0  0  0  0  0
   -4.3682    0.8924   -0.1552 H   0  0  0  0  0  0  0  0  0  0  0  0
   -2.1807    1.8659   -0.2518 H   0  0  0  0  0  0  0  0  0  0  0  0
   -2.3307    1.0169    1.2878 H   0  0  0  0  0  0  0  0  0  0  0  0
   -1.0154   -0.8801    0.3986 H   0  0  0  0  0  0  0  0  0  0  0  0
   -0.9565   -0.1177   -1.1940 H   0  0  0  0  0  0  0  0  0  0  0  0
    0.2543    1.0356    1.3751 H   0  0  0  0  0  0  0  0  0  0  0  0
    0.3318    1.7947   -0.2372 H   0  0  0  0  0  0  0  0  0  0  0  0
  1  2  1  0  0  0  0
  2  3  1  0  0  0  0
  3  4  1  0  0  0  0
  4  5  1  0  0  0  0
  5  6  1  0  0  0  0
  1  7  1  0  0  0  0
  1  8  1  0  0  0  0
  1  9  1  0  0  0  0
  2 10  1  0  0  0  0
  2 11  1  0  0  0  0
  3 12  1  0  0  0  0
  3 13  1  0  0  0  0
  4 14  1  0  0  0  0
  4 15  1  0  0  0  0
  5 16  1  0  0  0  0
  5 17  1  0  0  0  0
M  END
