 xtb: 6.7.1 (edcfbbe)
          04112516153D

 26 25  0     0  0            999 V2000
    2.7635   -0.9584   -1.1804 C   0  0  0  0  0  0  0  0  0  0  0  0
    1.7148   -0.2630   -0.3166 C   0  0  0  0  0  0  0  0  0  0  0  0
    1.2395   -1.1605    0.8149 C   0  0  0  0  0  0  0  0  0  0  0  0
    0.6465    0.2713   -1.2226 C   0  0  0  0  0  0  0  0  0  0  0  0
   -0.6112    0.3150   -1.1700 N   0  0  0  0  0  0  0  0  0  0  0  0
   -1.2570   -0.2474   -0.0544 O   0  0  0  0  0  0  0  0  0  0  0  0
   -2.6318   -0.2010   -0.1368 C   0  0  0  0  0  0  0  0  0  0  0  0
   -3.2444    0.2523   -1.0778 O   0  0  0  0  0  0  0  0  0  0  0  0
   -3.1497   -0.7395    0.9682 N   0  0  0  0  0  0  0  0  0  0  0  0
   -4.5743   -0.8470    1.1932 C   0  0  0  0  0  0  0  0  0  0  0  0
    2.4072    1.3270    0.3996 S   0  0  0  0  0  0  0  0  0  0  0  0
    4.0320    0.8025    1.0330 C   0  0  0  0  0  0  0  0  0  0  0  0
    3.2018   -0.2624   -1.8917 H   0  0  0  0  0  0  0  0  0  0  0  0
    3.5503   -1.3818   -0.5626 H   0  0  0  0  0  0  0  0  0  0  0  0
    2.2895   -1.7674   -1.7331 H   0  0  0  0  0  0  0  0  0  0  0  0
    0.6849   -2.0044    0.4100 H   0  0  0  0  0  0  0  0  0  0  0  0
    0.5959   -0.6099    1.4955 H   0  0  0  0  0  0  0  0  0  0  0  0
    2.0930   -1.5417    1.3710 H   0  0  0  0  0  0  0  0  0  0  0  0
    1.0174    0.7523   -2.1200 H   0  0  0  0  0  0  0  0  0  0  0  0
   -2.5215   -1.0756    1.6819 H   0  0  0  0  0  0  0  0  0  0  0  0
   -4.8561   -1.8918    1.3156 H   0  0  0  0  0  0  0  0  0  0  0  0
   -5.0809   -0.4331    0.3240 H   0  0  0  0  0  0  0  0  0  0  0  0
   -4.8581   -0.2846    2.0815 H   0  0  0  0  0  0  0  0  0  0  0  0
    4.4040    1.6588    1.5853 H   0  0  0  0  0  0  0  0  0  0  0  0
    4.6982    0.5746    0.2086 H   0  0  0  0  0  0  0  0  0  0  0  0
    3.9129   -0.0440    1.7001 H   0  0  0  0  0  0  0  0  0  0  0  0
  1  2  1  0  0  0  0
  2  3  1  0  0  0  0
  2  4  1  0  0  0  0
  4  5  2  0  0  0  0
  5  6  1  0  0  0  0
  6  7  1  0  0  0  0
  7  8  2  0  0  0  0
  7  9  4  0  0  0  0
  9 10  1  0  0  0  0
  2 11  1  0  0  0  0
 11 12  1  0  0  0  0
  1 13  1  0  0  0  0
  1 14  1  0  0  0  0
  1 15  1  0  0  0  0
  3 16  1  0  0  0  0
  3 17  1  0  0  0  0
  3 18  1  0  0  0  0
  4 19  1  0  0  0  0
  9 20  1  0  0  0  0
 10 21  1  0  0  0  0
 10 22  1  0  0  0  0
 10 23  1  0  0  0  0
 12 24  1  0  0  0  0
 12 25  1  0  0  0  0
 12 26  1  0  0  0  0
M  END
