 xtb: 6.7.1 (edcfbbe)
          04112516293D

 20 19  0     0  0            999 V2000
   -3.5232    0.1171    0.4860 C   0  0  0  0  0  0  0  0  0  0  0  0
   -2.5895    0.1545   -0.7189 C   0  0  0  0  0  0  0  0  0  0  0  0
   -1.2214   -0.4678   -0.4412 C   0  0  0  0  0  0  0  0  0  0  0  0
   -0.3985    0.3456    0.5546 C   0  0  0  0  0  0  0  0  0  0  0  0
    0.8793   -0.2654    0.7813 O   0  0  0  0  0  0  0  0  0  0  0  0
    1.8796    0.0260   -0.0435 C   0  0  0  0  0  0  0  0  0  0  0  0
    1.7826    0.8117   -0.9640 O   0  0  0  0  0  0  0  0  0  0  0  0
    3.1225   -0.7343    0.3090 C   0  0  0  0  0  0  0  0  0  0  0  0
   -4.5098    0.4748    0.2029 H   0  0  0  0  0  0  0  0  0  0  0  0
   -3.6209   -0.8993    0.8591 H   0  0  0  0  0  0  0  0  0  0  0  0
   -3.1528    0.7479    1.2890 H   0  0  0  0  0  0  0  0  0  0  0  0
   -3.0501   -0.3963   -1.5409 H   0  0  0  0  0  0  0  0  0  0  0  0
   -2.4538    1.1868   -1.0470 H   0  0  0  0  0  0  0  0  0  0  0  0
   -1.3440   -1.4806   -0.0529 H   0  0  0  0  0  0  0  0  0  0  0  0
   -0.6574   -0.5272   -1.3756 H   0  0  0  0  0  0  0  0  0  0  0  0
   -0.2430    1.3618    0.1783 H   0  0  0  0  0  0  0  0  0  0  0  0
   -0.8684    0.3718    1.5374 H   0  0  0  0  0  0  0  0  0  0  0  0
    3.0568   -1.0992    1.3281 H   0  0  0  0  0  0  0  0  0  0  0  0
    3.9899   -0.0957    0.1731 H   0  0  0  0  0  0  0  0  0  0  0  0
    3.2120   -1.5783   -0.3716 H   0  0  0  0  0  0  0  0  0  0  0  0
  1  2  1  0  0  0  0
  2  3  1  0  0  0  0
  3  4  1  0  0  0  0
  4  5  1  0  0  0  0
  5  6  1  0  0  0  0
  6  7  2  0  0  0  0
  6  8  1  0  0  0  0
  1  9  1  0  0  0  0
  1 10  1  0  0  0  0
  1 11  1  0  0  0  0
  2 12  1  0  0  0  0
  2 13  1  0  0  0  0
  3 14  1  0  0  0  0
  3 15  1  0  0  0  0
  4 16  1  0  0  0  0
  4 17  1  0  0  0  0
  8 18  1  0  0  0  0
  8 19  1  0  0  0  0
  8 20  1  0  0  0  0
M  END
