 xtb: 6.7.1 (edcfbbe)
          04112516423D

 26 25  0     0  0            999 V2000
    1.7163   -0.5097   -1.7098 C   0  0  0  0  0  0  0  0  0  0  0  0
    1.9226   -0.7343   -0.2188 C   0  0  0  0  0  0  0  0  0  0  0  0
    3.1977   -1.5332    0.0333 C   0  0  0  0  0  0  0  0  0  0  0  0
    0.7606   -1.4026    0.4447 C   0  0  0  0  0  0  0  0  0  0  0  0
   -0.4716   -1.1218    0.4590 N   0  0  0  0  0  0  0  0  0  0  0  0
   -0.8718    0.0173   -0.2789 O   0  0  0  0  0  0  0  0  0  0  0  0
   -2.2040    0.3279   -0.2041 C   0  0  0  0  0  0  0  0  0  0  0  0
   -2.5605    1.3240   -0.8092 O   0  0  0  0  0  0  0  0  0  0  0  0
   -2.9599   -0.4879    0.5154 N   0  0  0  0  0  0  0  0  0  0  0  0
   -4.3798   -0.2943    0.6984 C   0  0  0  0  0  0  0  0  0  0  0  0
    2.1516    0.8803    0.7212 S   0  0  0  0  0  0  0  0  0  0  0  0
    1.4459    2.1869   -0.3193 C   0  0  0  0  0  0  0  0  0  0  0  0
    1.6387   -1.4782   -2.2009 H   0  0  0  0  0  0  0  0  0  0  0  0
    0.8089    0.0514   -1.9158 H   0  0  0  0  0  0  0  0  0  0  0  0
    2.5686    0.0211   -2.1266 H   0  0  0  0  0  0  0  0  0  0  0  0
    4.0462   -1.0247   -0.4160 H   0  0  0  0  0  0  0  0  0  0  0  0
    3.1082   -2.5255   -0.4026 H   0  0  0  0  0  0  0  0  0  0  0  0
    3.3815   -1.6246    1.1008 H   0  0  0  0  0  0  0  0  0  0  0  0
    0.9813   -2.2655    1.0603 H   0  0  0  0  0  0  0  0  0  0  0  0
   -2.5021   -1.2701    0.9671 H   0  0  0  0  0  0  0  0  0  0  0  0
   -4.6745    0.5925    0.1408 H   0  0  0  0  0  0  0  0  0  0  0  0
   -4.6041   -0.1518    1.7544 H   0  0  0  0  0  0  0  0  0  0  0  0
   -4.9239   -1.1593    0.3225 H   0  0  0  0  0  0  0  0  0  0  0  0
    0.3939    1.9996   -0.5099 H   0  0  0  0  0  0  0  0  0  0  0  0
    2.0066    2.2676   -1.2441 H   0  0  0  0  0  0  0  0  0  0  0  0
    1.5594    3.0942    0.2661 H   0  0  0  0  0  0  0  0  0  0  0  0
  1  2  1  0  0  0  0
  2  3  1  0  0  0  0
  2  4  1  0  0  0  0
  4  5  2  0  0  0  0
  5  6  1  0  0  0  0
  6  7  1  0  0  0  0
  7  8  2  0  0  0  0
  7  9  4  0  0  0  0
  9 10  1  0  0  0  0
  2 11  1  0  0  0  0
 11 12  1  0  0  0  0
  1 13  1  0  0  0  0
  1 14  1  0  0  0  0
  1 15  1  0  0  0  0
  3 16  1  0  0  0  0
  3 17  1  0  0  0  0
  3 18  1  0  0  0  0
  4 19  1  0  0  0  0
  9 20  1  0  0  0  0
 10 21  1  0  0  0  0
 10 22  1  0  0  0  0
 10 23  1  0  0  0  0
 12 24  1  0  0  0  0
 12 25  1  0  0  0  0
 12 26  1  0  0  0  0
M  END
