 xtb: 6.7.1 (edcfbbe)
          04112516213D

 19 18  0     0  0            999 V2000
    2.8517    0.7823   -0.5708 C   0  0  0  0  0  0  0  0  0  0  0  0
    2.2646   -0.1476    0.4851 C   0  0  0  0  0  0  0  0  0  0  0  0
    0.7692    0.0754    0.7155 C   0  0  0  0  0  0  0  0  0  0  0  0
   -0.0707   -0.3122   -0.5076 C   0  0  0  0  0  0  0  0  0  0  0  0
   -1.5523   -0.2463   -0.2404 C   0  0  0  0  0  0  0  0  0  0  0  0
   -2.2772   -1.2086   -0.4142 O   0  0  0  0  0  0  0  0  0  0  0  0
   -2.0787    1.0692    0.2520 C   0  0  0  0  0  0  0  0  0  0  0  0
    2.6530    1.8208   -0.3166 H   0  0  0  0  0  0  0  0  0  0  0  0
    3.9285    0.6456   -0.6330 H   0  0  0  0  0  0  0  0  0  0  0  0
    2.4303    0.5771   -1.5512 H   0  0  0  0  0  0  0  0  0  0  0  0
    2.7842    0.0191    1.4310 H   0  0  0  0  0  0  0  0  0  0  0  0
    2.4365   -1.1857    0.1932 H   0  0  0  0  0  0  0  0  0  0  0  0
    0.6013    1.1236    0.9634 H   0  0  0  0  0  0  0  0  0  0  0  0
    0.4506   -0.5322    1.5655 H   0  0  0  0  0  0  0  0  0  0  0  0
    0.1469    0.3706   -1.3305 H   0  0  0  0  0  0  0  0  0  0  0  0
    0.1781   -1.3275   -0.8231 H   0  0  0  0  0  0  0  0  0  0  0  0
   -3.1578    1.1066    0.1304 H   0  0  0  0  0  0  0  0  0  0  0  0
   -1.8483    1.1568    1.3120 H   0  0  0  0  0  0  0  0  0  0  0  0
   -1.6068    1.8950   -0.2705 H   0  0  0  0  0  0  0  0  0  0  0  0
  1  2  1  0  0  0  0
  2  3  1  0  0  0  0
  3  4  1  0  0  0  0
  4  5  1  0  0  0  0
  5  6  2  0  0  0  0
  5  7  1  0  0  0  0
  1  8  1  0  0  0  0
  1  9  1  0  0  0  0
  1 10  1  0  0  0  0
  2 11  1  0  0  0  0
  2 12  1  0  0  0  0
  3 13  1  0  0  0  0
  3 14  1  0  0  0  0
  4 15  1  0  0  0  0
  4 16  1  0  0  0  0
  7 17  1  0  0  0  0
  7 18  1  0  0  0  0
  7 19  1  0  0  0  0
M  END
