 xtb: 6.7.1 (edcfbbe)
          04112516253D

 17 16  0     0  0            999 V2000
   -3.3034    0.4346    0.7778 C   0  0  0  0  0  0  0  0  0  0  0  0
   -2.2611    0.0248   -0.2557 C   0  0  0  0  0  0  0  0  0  0  0  0
   -0.8431    0.1457    0.2985 C   0  0  0  0  0  0  0  0  0  0  0  0
    0.1968   -0.2651   -0.7394 C   0  0  0  0  0  0  0  0  0  0  0  0
    1.6211   -0.1724   -0.2641 C   0  0  0  0  0  0  0  0  0  0  0  0
    2.5796   -0.4534   -0.9575 O   0  0  0  0  0  0  0  0  0  0  0  0
    1.7516    0.2436    0.9824 O   0  0  0  0  0  0  0  0  0  0  0  0
   -3.2339   -0.1973    1.6601 H   0  0  0  0  0  0  0  0  0  0  0  0
   -3.1508    1.4669    1.0839 H   0  0  0  0  0  0  0  0  0  0  0  0
   -4.3055    0.3424    0.3668 H   0  0  0  0  0  0  0  0  0  0  0  0
   -2.3594    0.6576   -1.1402 H   0  0  0  0  0  0  0  0  0  0  0  0
   -2.4425   -1.0069   -0.5640 H   0  0  0  0  0  0  0  0  0  0  0  0
   -0.6594    1.1759    0.6079 H   0  0  0  0  0  0  0  0  0  0  0  0
   -0.7423   -0.4858    1.1826 H   0  0  0  0  0  0  0  0  0  0  0  0
    0.1169    0.3571   -1.6343 H   0  0  0  0  0  0  0  0  0  0  0  0
    0.0341   -1.2964   -1.0620 H   0  0  0  0  0  0  0  0  0  0  0  0
    2.6853    0.2943    1.2656 H   0  0  0  0  0  0  0  0  0  0  0  0
  1  2  1  0  0  0  0
  2  3  1  0  0  0  0
  3  4  1  0  0  0  0
  4  5  1  0  0  0  0
  5  6  2  0  0  0  0
  5  7  1  0  0  0  0
  1  8  1  0  0  0  0
  1  9  1  0  0  0  0
  1 10  1  0  0  0  0
  2 11  1  0  0  0  0
  2 12  1  0  0  0  0
  3 13  1  0  0  0  0
  3 14  1  0  0  0  0
  4 15  1  0  0  0  0
  4 16  1  0  0  0  0
  7 17  1  0  0  0  0
M  END
