 xtb: 6.7.1 (edcfbbe)
          04112516013D

 20 19  0     0  0            999 V2000
   -3.6124   -0.7392   -0.0117 C   0  0  0  0  0  0  0  0  0  0  0  0
   -2.1770   -0.3967   -0.3913 C   0  0  0  0  0  0  0  0  0  0  0  0
   -1.6114    0.7124    0.4942 C   0  0  0  0  0  0  0  0  0  0  0  0
   -0.1798    1.0695    0.1235 C   0  0  0  0  0  0  0  0  0  0  0  0
    0.6651   -0.0520    0.4214 O   0  0  0  0  0  0  0  0  0  0  0  0
    1.8858   -0.0689   -0.0965 C   0  0  0  0  0  0  0  0  0  0  0  0
    2.3225    0.8223   -0.7975 O   0  0  0  0  0  0  0  0  0  0  0  0
    2.6318   -1.3142    0.2770 C   0  0  0  0  0  0  0  0  0  0  0  0
   -3.6633   -1.0763    1.0207 H   0  0  0  0  0  0  0  0  0  0  0  0
   -4.2528    0.1329   -0.1200 H   0  0  0  0  0  0  0  0  0  0  0  0
   -3.9963   -1.5296   -0.6511 H   0  0  0  0  0  0  0  0  0  0  0  0
   -1.5499   -1.2845   -0.2923 H   0  0  0  0  0  0  0  0  0  0  0  0
   -2.1421   -0.0769   -1.4351 H   0  0  0  0  0  0  0  0  0  0  0  0
   -2.2203    1.6115    0.3962 H   0  0  0  0  0  0  0  0  0  0  0  0
   -1.6318    0.3929    1.5368 H   0  0  0  0  0  0  0  0  0  0  0  0
   -0.0832    1.3060   -0.9416 H   0  0  0  0  0  0  0  0  0  0  0  0
    0.1784    1.9290    0.6995 H   0  0  0  0  0  0  0  0  0  0  0  0
    2.6051   -1.9975   -0.5692 H   0  0  0  0  0  0  0  0  0  0  0  0
    2.1631   -1.7832    1.1351 H   0  0  0  0  0  0  0  0  0  0  0  0
    3.6696   -1.0681    0.4802 H   0  0  0  0  0  0  0  0  0  0  0  0
  1  2  1  0  0  0  0
  2  3  1  0  0  0  0
  3  4  1  0  0  0  0
  4  5  1  0  0  0  0
  5  6  1  0  0  0  0
  6  7  2  0  0  0  0
  6  8  1  0  0  0  0
  1  9  1  0  0  0  0
  1 10  1  0  0  0  0
  1 11  1  0  0  0  0
  2 12  1  0  0  0  0
  2 13  1  0  0  0  0
  3 14  1  0  0  0  0
  3 15  1  0  0  0  0
  4 16  1  0  0  0  0
  4 17  1  0  0  0  0
  8 18  1  0  0  0  0
  8 19  1  0  0  0  0
  8 20  1  0  0  0  0
M  END
