 xtb: 6.7.1 (edcfbbe)
          04112516013D

 20 19  0     0  0            999 V2000
   -3.6660    0.0449   -0.7989 C   0  0  0  0  0  0  0  0  0  0  0  0
   -2.6363   -0.2226    0.2924 C   0  0  0  0  0  0  0  0  0  0  0  0
   -1.2554    0.2918   -0.1065 C   0  0  0  0  0  0  0  0  0  0  0  0
   -0.2240    0.0274    0.9865 C   0  0  0  0  0  0  0  0  0  0  0  0
    1.0481    0.5952    0.6485 O   0  0  0  0  0  0  0  0  0  0  0  0
    1.8818   -0.1190   -0.1027 C   0  0  0  0  0  0  0  0  0  0  0  0
    1.6346   -1.2394   -0.4976 O   0  0  0  0  0  0  0  0  0  0  0  0
    3.1480    0.6337   -0.3797 C   0  0  0  0  0  0  0  0  0  0  0  0
   -3.3745   -0.4453   -1.7248 H   0  0  0  0  0  0  0  0  0  0  0  0
   -4.6408   -0.3325   -0.5019 H   0  0  0  0  0  0  0  0  0  0  0  0
   -3.7521    1.1121   -0.9883 H   0  0  0  0  0  0  0  0  0  0  0  0
   -2.9495    0.2660    1.2168 H   0  0  0  0  0  0  0  0  0  0  0  0
   -2.5780   -1.2956    0.4841 H   0  0  0  0  0  0  0  0  0  0  0  0
   -0.9279   -0.2033   -1.0240 H   0  0  0  0  0  0  0  0  0  0  0  0
   -1.2989    1.3660   -0.2967 H   0  0  0  0  0  0  0  0  0  0  0  0
   -0.5082    0.5131    1.9209 H   0  0  0  0  0  0  0  0  0  0  0  0
   -0.1012   -1.0491    1.1427 H   0  0  0  0  0  0  0  0  0  0  0  0
    2.9093    1.5333   -0.9406 H   0  0  0  0  0  0  0  0  0  0  0  0
    3.8283    0.0075   -0.9470 H   0  0  0  0  0  0  0  0  0  0  0  0
    3.6003    0.9335    0.5613 H   0  0  0  0  0  0  0  0  0  0  0  0
  1  2  1  0  0  0  0
  2  3  1  0  0  0  0
  3  4  1  0  0  0  0
  4  5  1  0  0  0  0
  5  6  1  0  0  0  0
  6  7  2  0  0  0  0
  6  8  1  0  0  0  0
  1  9  1  0  0  0  0
  1 10  1  0  0  0  0
  1 11  1  0  0  0  0
  2 12  1  0  0  0  0
  2 13  1  0  0  0  0
  3 14  1  0  0  0  0
  3 15  1  0  0  0  0
  4 16  1  0  0  0  0
  4 17  1  0  0  0  0
  8 18  1  0  0  0  0
  8 19  1  0  0  0  0
  8 20  1  0  0  0  0
M  END
