 xtb: 6.7.1 (edcfbbe)
          04112516593D

 20 19  0     0  0            999 V2000
   -3.6433   -0.7269    0.0717 C   0  0  0  0  0  0  0  0  0  0  0  0
   -2.2241   -0.3330    0.4624 C   0  0  0  0  0  0  0  0  0  0  0  0
   -1.6086    0.6282   -0.5532 C   0  0  0  0  0  0  0  0  0  0  0  0
   -0.1884    1.0253   -0.1799 C   0  0  0  0  0  0  0  0  0  0  0  0
    0.6521   -0.1338   -0.2801 O   0  0  0  0  0  0  0  0  0  0  0  0
    1.8760   -0.0604    0.2253 C   0  0  0  0  0  0  0  0  0  0  0  0
    2.3155    0.9403    0.7562 O   0  0  0  0  0  0  0  0  0  0  0  0
    2.6212   -1.3517    0.0712 C   0  0  0  0  0  0  0  0  0  0  0  0
   -4.2804    0.1526    0.0160 H   0  0  0  0  0  0  0  0  0  0  0  0
   -3.6491   -1.2170   -0.8987 H   0  0  0  0  0  0  0  0  0  0  0  0
   -4.0634   -1.4103    0.8049 H   0  0  0  0  0  0  0  0  0  0  0  0
   -2.2349    0.1414    1.4462 H   0  0  0  0  0  0  0  0  0  0  0  0
   -1.6007   -1.2263    0.5285 H   0  0  0  0  0  0  0  0  0  0  0  0
   -1.5907    0.1573   -1.5369 H   0  0  0  0  0  0  0  0  0  0  0  0
   -2.2090    1.5361   -0.6155 H   0  0  0  0  0  0  0  0  0  0  0  0
    0.2033    1.7919   -0.8565 H   0  0  0  0  0  0  0  0  0  0  0  0
   -0.1306    1.4109    0.8437 H   0  0  0  0  0  0  0  0  0  0  0  0
    2.6230   -1.8647    1.0305 H   0  0  0  0  0  0  0  0  0  0  0  0
    3.6514   -1.1450   -0.2028 H   0  0  0  0  0  0  0  0  0  0  0  0
    2.1342   -1.9737   -0.6718 H   0  0  0  0  0  0  0  0  0  0  0  0
  1  2  1  0  0  0  0
  2  3  1  0  0  0  0
  3  4  1  0  0  0  0
  4  5  1  0  0  0  0
  5  6  1  0  0  0  0
  6  7  2  0  0  0  0
  6  8  1  0  0  0  0
  1  9  1  0  0  0  0
  1 10  1  0  0  0  0
  1 11  1  0  0  0  0
  2 12  1  0  0  0  0
  2 13  1  0  0  0  0
  3 14  1  0  0  0  0
  3 15  1  0  0  0  0
  4 16  1  0  0  0  0
  4 17  1  0  0  0  0
  8 18  1  0  0  0  0
  8 19  1  0  0  0  0
  8 20  1  0  0  0  0
M  END
