 xtb: 6.7.1 (edcfbbe)
          04112514233D

 23 22  0     0  0            999 V2000
    3.5323   -0.7009    0.9564 C   0  0  0  0  0  0  0  0  0  0  0  0
    2.4307    0.2195    0.4326 C   0  0  0  0  0  0  0  0  0  0  0  0
    2.8682    0.8648   -0.8807 C   0  0  0  0  0  0  0  0  0  0  0  0
    1.1329   -0.5784    0.2664 C   0  0  0  0  0  0  0  0  0  0  0  0
   -0.0672    0.2963   -0.0663 C   0  0  0  0  0  0  0  0  0  0  0  0
   -1.2421   -0.5255   -0.0074 O   0  0  0  0  0  0  0  0  0  0  0  0
   -2.4183    0.0649   -0.1836 C   0  0  0  0  0  0  0  0  0  0  0  0
   -2.5355    1.2541   -0.4006 O   0  0  0  0  0  0  0  0  0  0  0  0
   -3.5509   -0.9090   -0.0654 C   0  0  0  0  0  0  0  0  0  0  0  0
    3.7258   -1.4999    0.2448 H   0  0  0  0  0  0  0  0  0  0  0  0
    3.2436   -1.1464    1.9049 H   0  0  0  0  0  0  0  0  0  0  0  0
    4.4531   -0.1431    1.1055 H   0  0  0  0  0  0  0  0  0  0  0  0
    2.2576    1.0112    1.1698 H   0  0  0  0  0  0  0  0  0  0  0  0
    3.8230    1.3681   -0.7500 H   0  0  0  0  0  0  0  0  0  0  0  0
    2.1427    1.6001   -1.2177 H   0  0  0  0  0  0  0  0  0  0  0  0
    2.9828    0.1088   -1.6538 H   0  0  0  0  0  0  0  0  0  0  0  0
    0.9110   -1.1049    1.1962 H   0  0  0  0  0  0  0  0  0  0  0  0
    1.2556   -1.3250   -0.5194 H   0  0  0  0  0  0  0  0  0  0  0  0
   -0.1778    1.1166    0.6518 H   0  0  0  0  0  0  0  0  0  0  0  0
   -0.0016    0.7290   -1.0690 H   0  0  0  0  0  0  0  0  0  0  0  0
   -3.7354   -1.0960    0.9902 H   0  0  0  0  0  0  0  0  0  0  0  0
   -3.2778   -1.8475   -0.5369 H   0  0  0  0  0  0  0  0  0  0  0  0
   -4.4439   -0.4877   -0.5152 H   0  0  0  0  0  0  0  0  0  0  0  0
  1  2  1  0  0  0  0
  2  3  1  0  0  0  0
  2  4  1  0  0  0  0
  4  5  1  0  0  0  0
  5  6  1  0  0  0  0
  6  7  1  0  0  0  0
  7  8  2  0  0  0  0
  7  9  1  0  0  0  0
  1 10  1  0  0  0  0
  1 11  1  0  0  0  0
  1 12  1  0  0  0  0
  2 13  1  0  0  0  0
  3 14  1  0  0  0  0
  3 15  1  0  0  0  0
  3 16  1  0  0  0  0
  4 17  1  0  0  0  0
  4 18  1  0  0  0  0
  5 19  1  0  0  0  0
  5 20  1  0  0  0  0
  9 21  1  0  0  0  0
  9 22  1  0  0  0  0
  9 23  1  0  0  0  0
M  END
