 xtb: 6.7.1 (edcfbbe)
          04112514203D

 23 22  0     0  0            999 V2000
    2.9637    0.1994    0.3651 C   0  0  0  0  0  0  0  0  0  0  0  0
    1.8298    0.2632   -0.6523 C   0  0  0  0  0  0  0  0  0  0  0  0
    0.7364   -0.7735   -0.3805 C   0  0  0  0  0  0  0  0  0  0  0  0
   -0.1587   -0.4315    0.8198 C   0  0  0  0  0  0  0  0  0  0  0  0
   -1.5404    0.1464    0.4735 C   0  0  0  0  0  0  0  0  0  0  0  0
   -1.4457    1.4261   -0.3540 C   0  0  0  0  0  0  0  0  0  0  0  0
   -2.4282   -0.8811   -0.2270 C   0  0  0  0  0  0  0  0  0  0  0  0
    3.4371   -0.7800    0.3442 H   0  0  0  0  0  0  0  0  0  0  0  0
    3.7178    0.9502    0.1405 H   0  0  0  0  0  0  0  0  0  0  0  0
    2.5960    0.3772    1.3727 H   0  0  0  0  0  0  0  0  0  0  0  0
    2.2442    0.0839   -1.6475 H   0  0  0  0  0  0  0  0  0  0  0  0
    1.3970    1.2643   -0.6506 H   0  0  0  0  0  0  0  0  0  0  0  0
    0.1233   -0.8811   -1.2755 H   0  0  0  0  0  0  0  0  0  0  0  0
    1.2194   -1.7379   -0.2090 H   0  0  0  0  0  0  0  0  0  0  0  0
   -0.3207   -1.3316    1.4170 H   0  0  0  0  0  0  0  0  0  0  0  0
    0.3585    0.2865    1.4588 H   0  0  0  0  0  0  0  0  0  0  0  0
   -2.0197    0.3996    1.4277 H   0  0  0  0  0  0  0  0  0  0  0  0
   -1.0075    1.2266   -1.3283 H   0  0  0  0  0  0  0  0  0  0  0  0
   -2.4372    1.8466   -0.5078 H   0  0  0  0  0  0  0  0  0  0  0  0
   -0.8367    2.1679    0.1576 H   0  0  0  0  0  0  0  0  0  0  0  0
   -2.0294   -1.1450   -1.2032 H   0  0  0  0  0  0  0  0  0  0  0  0
   -3.4281   -0.4777   -0.3697 H   0  0  0  0  0  0  0  0  0  0  0  0
   -2.5054   -1.7880    0.3684 H   0  0  0  0  0  0  0  0  0  0  0  0
  1  2  1  0  0  0  0
  2  3  1  0  0  0  0
  3  4  1  0  0  0  0
  4  5  1  0  0  0  0
  5  6  1  0  0  0  0
  5  7  1  0  0  0  0
  1  8  1  0  0  0  0
  1  9  1  0  0  0  0
  1 10  1  0  0  0  0
  2 11  1  0  0  0  0
  2 12  1  0  0  0  0
  3 13  1  0  0  0  0
  3 14  1  0  0  0  0
  4 15  1  0  0  0  0
  4 16  1  0  0  0  0
  5 17  1  0  0  0  0
  6 18  1  0  0  0  0
  6 19  1  0  0  0  0
  6 20  1  0  0  0  0
  7 21  1  0  0  0  0
  7 22  1  0  0  0  0
  7 23  1  0  0  0  0
M  END
