 xtb: 6.7.1 (edcfbbe)
          04112514133D

 23 22  0     0  0            999 V2000
    2.6262    0.5647    0.4110 C   0  0  0  0  0  0  0  0  0  0  0  0
    1.8272   -0.7333    0.4397 C   0  0  0  0  0  0  0  0  0  0  0  0
    0.9022   -0.8998   -0.7674 C   0  0  0  0  0  0  0  0  0  0  0  0
   -0.1735    0.1792   -0.9148 C   0  0  0  0  0  0  0  0  0  0  0  0
   -1.1374    0.3193    0.2692 C   0  0  0  0  0  0  0  0  0  0  0  0
   -2.0978    1.4796    0.0079 C   0  0  0  0  0  0  0  0  0  0  0  0
   -1.9284   -0.9636    0.5143 C   0  0  0  0  0  0  0  0  0  0  0  0
    1.9727    1.4274    0.5106 H   0  0  0  0  0  0  0  0  0  0  0  0
    3.3409    0.5851    1.2305 H   0  0  0  0  0  0  0  0  0  0  0  0
    3.1741    0.6526   -0.5248 H   0  0  0  0  0  0  0  0  0  0  0  0
    1.2457   -0.7822    1.3618 H   0  0  0  0  0  0  0  0  0  0  0  0
    2.5234   -1.5758    0.4505 H   0  0  0  0  0  0  0  0  0  0  0  0
    1.5119   -0.8911   -1.6748 H   0  0  0  0  0  0  0  0  0  0  0  0
    0.4255   -1.8800   -0.7089 H   0  0  0  0  0  0  0  0  0  0  0  0
    0.3119    1.1426   -1.0828 H   0  0  0  0  0  0  0  0  0  0  0  0
   -0.7586   -0.0474   -1.8102 H   0  0  0  0  0  0  0  0  0  0  0  0
   -0.5620    0.5530    1.1707 H   0  0  0  0  0  0  0  0  0  0  0  0
   -2.7697    1.6174    0.8519 H   0  0  0  0  0  0  0  0  0  0  0  0
   -1.5496    2.4060   -0.1483 H   0  0  0  0  0  0  0  0  0  0  0  0
   -2.6968    1.2824   -0.8787 H   0  0  0  0  0  0  0  0  0  0  0  0
   -2.4640   -1.2551   -0.3869 H   0  0  0  0  0  0  0  0  0  0  0  0
   -2.6541   -0.8118    1.3103 H   0  0  0  0  0  0  0  0  0  0  0  0
   -1.2730   -1.7795    0.8067 H   0  0  0  0  0  0  0  0  0  0  0  0
  1  2  1  0  0  0  0
  2  3  1  0  0  0  0
  3  4  1  0  0  0  0
  4  5  1  0  0  0  0
  5  6  1  0  0  0  0
  5  7  1  0  0  0  0
  1  8  1  0  0  0  0
  1  9  1  0  0  0  0
  1 10  1  0  0  0  0
  2 11  1  0  0  0  0
  2 12  1  0  0  0  0
  3 13  1  0  0  0  0
  3 14  1  0  0  0  0
  4 15  1  0  0  0  0
  4 16  1  0  0  0  0
  5 17  1  0  0  0  0
  6 18  1  0  0  0  0
  6 19  1  0  0  0  0
  6 20  1  0  0  0  0
  7 21  1  0  0  0  0
  7 22  1  0  0  0  0
  7 23  1  0  0  0  0
M  END
