 xtb: 6.7.1 (edcfbbe)
          04112516113D

 17 16  0     0  0            999 V2000
   -3.4333   -1.1569    0.1468 C   0  0  0  0  0  0  0  0  0  0  0  0
   -3.1451    0.1783   -0.5309 C   0  0  0  0  0  0  0  0  0  0  0  0
   -2.2960    1.1211    0.3246 C   0  0  0  0  0  0  0  0  0  0  0  0
   -0.9102    0.5864    0.6970 C   0  0  0  0  0  0  0  0  0  0  0  0
   -0.0475    0.3591   -0.5288 C   0  0  0  0  0  0  0  0  0  0  0  0
    1.7815   -0.1810   -0.0175 Br  0  0  0  0  0  0  0  0  0  0  0  0
   -2.5272   -1.7459    0.2641 H   0  0  0  0  0  0  0  0  0  0  0  0
   -4.1337   -1.7360   -0.4496 H   0  0  0  0  0  0  0  0  0  0  0  0
   -3.8704   -0.9972    1.1297 H   0  0  0  0  0  0  0  0  0  0  0  0
   -2.6581    0.0036   -1.4920 H   0  0  0  0  0  0  0  0  0  0  0  0
   -4.0933    0.6794   -0.7366 H   0  0  0  0  0  0  0  0  0  0  0  0
   -2.1774    2.0671   -0.2086 H   0  0  0  0  0  0  0  0  0  0  0  0
   -2.8319    1.3290    1.2525 H   0  0  0  0  0  0  0  0  0  0  0  0
   -0.4209    1.3150    1.3477 H   0  0  0  0  0  0  0  0  0  0  0  0
   -1.0045   -0.3446    1.2578 H   0  0  0  0  0  0  0  0  0  0  0  0
    0.0690    1.2672   -1.1181 H   0  0  0  0  0  0  0  0  0  0  0  0
   -0.4179   -0.4495   -1.1547 H   0  0  0  0  0  0  0  0  0  0  0  0
  1  2  1  0  0  0  0
  2  3  1  0  0  0  0
  3  4  1  0  0  0  0
  4  5  1  0  0  0  0
  5  6  1  0  0  0  0
  1  7  1  0  0  0  0
  1  8  1  0  0  0  0
  1  9  1  0  0  0  0
  2 10  1  0  0  0  0
  2 11  1  0  0  0  0
  3 12  1  0  0  0  0
  3 13  1  0  0  0  0
  4 14  1  0  0  0  0
  4 15  1  0  0  0  0
  5 16  1  0  0  0  0
  5 17  1  0  0  0  0
M  END
