 xtb: 6.7.1 (edcfbbe)
          04112516203D

 17 16  0     0  0            999 V2000
   -3.4310   -0.9128   -0.2201 C   0  0  0  0  0  0  0  0  0  0  0  0
   -2.2597   -0.1701    0.4112 C   0  0  0  0  0  0  0  0  0  0  0  0
   -1.7510    0.9467   -0.5005 C   0  0  0  0  0  0  0  0  0  0  0  0
   -0.5698    1.7281    0.0932 C   0  0  0  0  0  0  0  0  0  0  0  0
    0.7859    1.3155   -0.4470 C   0  0  0  0  0  0  0  0  0  0  0  0
    1.3074   -0.5202    0.0594 Br  0  0  0  0  0  0  0  0  0  0  0  0
   -4.2530   -0.2294   -0.4221 H   0  0  0  0  0  0  0  0  0  0  0  0
   -3.7881   -1.6945    0.4453 H   0  0  0  0  0  0  0  0  0  0  0  0
   -3.1290   -1.3734   -1.1580 H   0  0  0  0  0  0  0  0  0  0  0  0
   -2.5770    0.2620    1.3632 H   0  0  0  0  0  0  0  0  0  0  0  0
   -1.4582   -0.8799    0.6190 H   0  0  0  0  0  0  0  0  0  0  0  0
   -1.4616    0.5187   -1.4631 H   0  0  0  0  0  0  0  0  0  0  0  0
   -2.5770    1.6353   -0.6878 H   0  0  0  0  0  0  0  0  0  0  0  0
   -0.6739    2.7885   -0.1487 H   0  0  0  0  0  0  0  0  0  0  0  0
   -0.5769    1.6359    1.1811 H   0  0  0  0  0  0  0  0  0  0  0  0
    1.5799    1.9478   -0.0532 H   0  0  0  0  0  0  0  0  0  0  0  0
    0.8064    1.3266   -1.5354 H   0  0  0  0  0  0  0  0  0  0  0  0
  1  2  1  0  0  0  0
  2  3  1  0  0  0  0
  3  4  1  0  0  0  0
  4  5  1  0  0  0  0
  5  6  1  0  0  0  0
  1  7  1  0  0  0  0
  1  8  1  0  0  0  0
  1  9  1  0  0  0  0
  2 10  1  0  0  0  0
  2 11  1  0  0  0  0
  3 12  1  0  0  0  0
  3 13  1  0  0  0  0
  4 14  1  0  0  0  0
  4 15  1  0  0  0  0
  5 16  1  0  0  0  0
  5 17  1  0  0  0  0
M  END
