 xtb: 6.7.1 (edcfbbe)
          04112517153D

 20 19  0     0  0            999 V2000
   -2.3178   -1.2418    0.5547 C   0  0  0  0  0  0  0  0  0  0  0  0
   -1.9817   -0.2939   -0.5915 C   0  0  0  0  0  0  0  0  0  0  0  0
   -1.5586    1.0991   -0.1224 C   0  0  0  0  0  0  0  0  0  0  0  0
   -0.2928    1.0899    0.7449 C   0  0  0  0  0  0  0  0  0  0  0  0
    0.8609    0.4883   -0.0121 C   0  0  0  0  0  0  0  0  0  0  0  0
    1.3409    0.9395   -1.0310 O   0  0  0  0  0  0  0  0  0  0  0  0
    1.3041   -0.6236    0.5662 O   0  0  0  0  0  0  0  0  0  0  0  0
    2.3992   -1.3017   -0.0536 C   0  0  0  0  0  0  0  0  0  0  0  0
   -3.0523   -0.7895    1.2166 H   0  0  0  0  0  0  0  0  0  0  0  0
   -2.7318   -2.1679    0.1637 H   0  0  0  0  0  0  0  0  0  0  0  0
   -1.4297   -1.4868    1.1312 H   0  0  0  0  0  0  0  0  0  0  0  0
   -1.1841   -0.7258   -1.2017 H   0  0  0  0  0  0  0  0  0  0  0  0
   -2.8587   -0.1836   -1.2329 H   0  0  0  0  0  0  0  0  0  0  0  0
   -2.3680    1.5498    0.4532 H   0  0  0  0  0  0  0  0  0  0  0  0
   -1.3708    1.7228   -0.9987 H   0  0  0  0  0  0  0  0  0  0  0  0
   -0.4470    0.5225    1.6602 H   0  0  0  0  0  0  0  0  0  0  0  0
   -0.0297    2.1187    0.9941 H   0  0  0  0  0  0  0  0  0  0  0  0
    2.6197   -2.1503    0.5861 H   0  0  0  0  0  0  0  0  0  0  0  0
    3.2571   -0.6325   -0.1289 H   0  0  0  0  0  0  0  0  0  0  0  0
    2.1169   -1.6288   -1.0550 H   0  0  0  0  0  0  0  0  0  0  0  0
  1  2  1  0  0  0  0
  2  3  1  0  0  0  0
  3  4  1  0  0  0  0
  4  5  1  0  0  0  0
  5  6  2  0  0  0  0
  5  7  1  0  0  0  0
  7  8  1  0  0  0  0
  1  9  1  0  0  0  0
  1 10  1  0  0  0  0
  1 11  1  0  0  0  0
  2 12  1  0  0  0  0
  2 13  1  0  0  0  0
  3 14  1  0  0  0  0
  3 15  1  0  0  0  0
  4 16  1  0  0  0  0
  4 17  1  0  0  0  0
  8 18  1  0  0  0  0
  8 19  1  0  0  0  0
  8 20  1  0  0  0  0
M  END
