 xtb: 6.7.1 (edcfbbe)
          04112516113D

 20 19  0     0  0            999 V2000
    4.0171   -0.0230    0.2695 C   0  0  0  0  0  0  0  0  0  0  0  0
    2.6688    0.3177   -0.2792 C   0  0  0  0  0  0  0  0  0  0  0  0
    2.3349    1.3998   -0.7100 O   0  0  0  0  0  0  0  0  0  0  0  0
    1.8534   -0.7420   -0.2633 O   0  0  0  0  0  0  0  0  0  0  0  0
    0.5425   -0.5907   -0.8007 C   0  0  0  0  0  0  0  0  0  0  0  0
   -0.3779    0.1132    0.1985 C   0  0  0  0  0  0  0  0  0  0  0  0
   -1.7005    0.1188   -0.3326 O   0  0  0  0  0  0  0  0  0  0  0  0
   -2.7231   -0.1437    0.4862 C   0  0  0  0  0  0  0  0  0  0  0  0
   -2.5852   -0.3938    1.6639 O   0  0  0  0  0  0  0  0  0  0  0  0
   -4.0282   -0.0738   -0.2407 C   0  0  0  0  0  0  0  0  0  0  0  0
    4.4551    0.8537    0.7357 H   0  0  0  0  0  0  0  0  0  0  0  0
    4.6550   -0.3288   -0.5574 H   0  0  0  0  0  0  0  0  0  0  0  0
    3.9336   -0.8458    0.9712 H   0  0  0  0  0  0  0  0  0  0  0  0
    0.5859   -0.0101   -1.7271 H   0  0  0  0  0  0  0  0  0  0  0  0
    0.1898   -1.6030   -0.9992 H   0  0  0  0  0  0  0  0  0  0  0  0
   -0.0570    1.1500    0.3404 H   0  0  0  0  0  0  0  0  0  0  0  0
   -0.3742   -0.4058    1.1633 H   0  0  0  0  0  0  0  0  0  0  0  0
   -4.7819   -0.6298    0.3071 H   0  0  0  0  0  0  0  0  0  0  0  0
   -3.9094   -0.4550   -1.2495 H   0  0  0  0  0  0  0  0  0  0  0  0
   -4.3312    0.9693   -0.3009 H   0  0  0  0  0  0  0  0  0  0  0  0
  1  2  1  0  0  0  0
  2  3  2  0  0  0  0
  2  4  1  0  0  0  0
  4  5  1  0  0  0  0
  5  6  1  0  0  0  0
  6  7  1  0  0  0  0
  7  8  1  0  0  0  0
  8  9  2  0  0  0  0
  8 10  1  0  0  0  0
  1 11  1  0  0  0  0
  1 12  1  0  0  0  0
  1 13  1  0  0  0  0
  5 14  1  0  0  0  0
  5 15  1  0  0  0  0
  6 16  1  0  0  0  0
  6 17  1  0  0  0  0
 10 18  1  0  0  0  0
 10 19  1  0  0  0  0
 10 20  1  0  0  0  0
M  END
