 xtb: 6.7.1 (edcfbbe)
          04112516293D

 20 19  0     0  0            999 V2000
   -3.3330   -0.7494   -0.5661 C   0  0  0  0  0  0  0  0  0  0  0  0
   -2.1713   -0.3961    0.3542 C   0  0  0  0  0  0  0  0  0  0  0  0
   -1.3449    0.7615   -0.2032 C   0  0  0  0  0  0  0  0  0  0  0  0
   -0.1597    1.1075    0.6936 C   0  0  0  0  0  0  0  0  0  0  0  0
    0.7593    0.0109    0.7969 O   0  0  0  0  0  0  0  0  0  0  0  0
    1.7109   -0.1058   -0.1230 C   0  0  0  0  0  0  0  0  0  0  0  0
    1.8484    0.6686   -1.0478 O   0  0  0  0  0  0  0  0  0  0  0  0
    2.5958   -1.2853    0.1479 C   0  0  0  0  0  0  0  0  0  0  0  0
   -3.9078   -1.5743   -0.1535 H   0  0  0  0  0  0  0  0  0  0  0  0
   -3.9942    0.1052   -0.6883 H   0  0  0  0  0  0  0  0  0  0  0  0
   -2.9671   -1.0416   -1.5478 H   0  0  0  0  0  0  0  0  0  0  0  0
   -2.5558   -0.1195    1.3378 H   0  0  0  0  0  0  0  0  0  0  0  0
   -1.5263   -1.2677    0.4821 H   0  0  0  0  0  0  0  0  0  0  0  0
   -0.9686    0.5061   -1.1968 H   0  0  0  0  0  0  0  0  0  0  0  0
   -1.9680    1.6514   -0.2977 H   0  0  0  0  0  0  0  0  0  0  0  0
    0.3755    1.9755    0.2964 H   0  0  0  0  0  0  0  0  0  0  0  0
   -0.4834    1.2961    1.7180 H   0  0  0  0  0  0  0  0  0  0  0  0
    2.0384   -2.0566    0.6683 H   0  0  0  0  0  0  0  0  0  0  0  0
    3.4160   -0.9570    0.7828 H   0  0  0  0  0  0  0  0  0  0  0  0
    3.0071   -1.6557   -0.7855 H   0  0  0  0  0  0  0  0  0  0  0  0
  1  2  1  0  0  0  0
  2  3  1  0  0  0  0
  3  4  1  0  0  0  0
  4  5  1  0  0  0  0
  5  6  1  0  0  0  0
  6  7  2  0  0  0  0
  6  8  1  0  0  0  0
  1  9  1  0  0  0  0
  1 10  1  0  0  0  0
  1 11  1  0  0  0  0
  2 12  1  0  0  0  0
  2 13  1  0  0  0  0
  3 14  1  0  0  0  0
  3 15  1  0  0  0  0
  4 16  1  0  0  0  0
  4 17  1  0  0  0  0
  8 18  1  0  0  0  0
  8 19  1  0  0  0  0
  8 20  1  0  0  0  0
M  END
