 xtb: 6.7.1 (edcfbbe)
          04112514143D

 16 15  0     0  0            999 V2000
   -2.9720   -0.3061    0.1455 C   0  0  0  0  0  0  0  0  0  0  0  0
   -1.7476    0.1071   -0.4280 O   0  0  0  0  0  0  0  0  0  0  0  0
   -0.6285   -0.2428    0.3564 C   0  0  0  0  0  0  0  0  0  0  0  0
    0.6282    0.2469   -0.3541 C   0  0  0  0  0  0  0  0  0  0  0  0
    1.7477   -0.1079    0.4276 O   0  0  0  0  0  0  0  0  0  0  0  0
    2.9723    0.3026   -0.1474 C   0  0  0  0  0  0  0  0  0  0  0  0
   -3.0011   -1.3946    0.2603 H   0  0  0  0  0  0  0  0  0  0  0  0
   -3.7500    0.0151   -0.5418 H   0  0  0  0  0  0  0  0  0  0  0  0
   -3.1218    0.1617    1.1241 H   0  0  0  0  0  0  0  0  0  0  0  0
   -0.6918    0.2211    1.3510 H   0  0  0  0  0  0  0  0  0  0  0  0
   -0.5731   -1.3327    0.4887 H   0  0  0  0  0  0  0  0  0  0  0  0
    0.5753    1.3373   -0.4832 H   0  0  0  0  0  0  0  0  0  0  0  0
    0.6889   -0.2142   -1.3502 H   0  0  0  0  0  0  0  0  0  0  0  0
    3.0051    1.3913   -0.2592 H   0  0  0  0  0  0  0  0  0  0  0  0
    3.1182   -0.1629   -1.1277 H   0  0  0  0  0  0  0  0  0  0  0  0
    3.7507   -0.0234    0.5372 H   0  0  0  0  0  0  0  0  0  0  0  0
  1  2  1  0  0  0  0
  2  3  1  0  0  0  0
  3  4  1  0  0  0  0
  4  5  1  0  0  0  0
  5  6  1  0  0  0  0
  1  7  1  0  0  0  0
  1  8  1  0  0  0  0
  1  9  1  0  0  0  0
  3 10  1  0  0  0  0
  3 11  1  0  0  0  0
  4 12  1  0  0  0  0
  4 13  1  0  0  0  0
  6 14  1  0  0  0  0
  6 15  1  0  0  0  0
  6 16  1  0  0  0  0
M  END
