 xtb: 6.7.1 (edcfbbe)
          04112518233D

 26 25  0     0  0            999 V2000
    1.4709    0.0018   -1.6551 C   0  0  0  0  0  0  0  0  0  0  0  0
    1.7906   -0.6003   -0.2991 C   0  0  0  0  0  0  0  0  0  0  0  0
    2.7361   -1.7905   -0.4439 C   0  0  0  0  0  0  0  0  0  0  0  0
    0.6469   -0.9615    0.5829 C   0  0  0  0  0  0  0  0  0  0  0  0
   -0.5604   -0.5894    0.6554 N   0  0  0  0  0  0  0  0  0  0  0  0
   -1.0413    0.3252   -0.3163 O   0  0  0  0  0  0  0  0  0  0  0  0
   -2.3796    0.6038   -0.2319 C   0  0  0  0  0  0  0  0  0  0  0  0
   -2.8201    1.4073   -1.0349 O   0  0  0  0  0  0  0  0  0  0  0  0
   -3.0559   -0.0301    0.7162 N   0  0  0  0  0  0  0  0  0  0  0  0
   -4.4714    0.1577    0.9360 C   0  0  0  0  0  0  0  0  0  0  0  0
    2.7016    0.6172    0.7974 S   0  0  0  0  0  0  0  0  0  0  0  0
    1.6956    2.1222    0.7077 C   0  0  0  0  0  0  0  0  0  0  0  0
    0.9672   -0.7433   -2.2688 H   0  0  0  0  0  0  0  0  0  0  0  0
    0.8184    0.8670   -1.5815 H   0  0  0  0  0  0  0  0  0  0  0  0
    2.3948    0.2948   -2.1487 H   0  0  0  0  0  0  0  0  0  0  0  0
    3.0467   -2.1556    0.5316 H   0  0  0  0  0  0  0  0  0  0  0  0
    3.6226   -1.4891   -0.9950 H   0  0  0  0  0  0  0  0  0  0  0  0
    2.2387   -2.5921   -0.9846 H   0  0  0  0  0  0  0  0  0  0  0  0
    0.8971   -1.6397    1.3905 H   0  0  0  0  0  0  0  0  0  0  0  0
   -2.5394   -0.6632    1.3142 H   0  0  0  0  0  0  0  0  0  0  0  0
   -4.6451    0.5498    1.9370 H   0  0  0  0  0  0  0  0  0  0  0  0
   -4.9949   -0.7898    0.8186 H   0  0  0  0  0  0  0  0  0  0  0  0
   -4.8359    0.8694    0.1979 H   0  0  0  0  0  0  0  0  0  0  0  0
    2.0543    2.7631    1.5063 H   0  0  0  0  0  0  0  0  0  0  0  0
    0.6505    1.8801    0.8698 H   0  0  0  0  0  0  0  0  0  0  0  0
    1.8365    2.6064   -0.2534 H   0  0  0  0  0  0  0  0  0  0  0  0
  1  2  1  0  0  0  0
  2  3  1  0  0  0  0
  2  4  1  0  0  0  0
  4  5  2  0  0  0  0
  5  6  1  0  0  0  0
  6  7  1  0  0  0  0
  7  8  2  0  0  0  0
  7  9  4  0  0  0  0
  9 10  1  0  0  0  0
  2 11  1  0  0  0  0
 11 12  1  0  0  0  0
  1 13  1  0  0  0  0
  1 14  1  0  0  0  0
  1 15  1  0  0  0  0
  3 16  1  0  0  0  0
  3 17  1  0  0  0  0
  3 18  1  0  0  0  0
  4 19  1  0  0  0  0
  9 20  1  0  0  0  0
 10 21  1  0  0  0  0
 10 22  1  0  0  0  0
 10 23  1  0  0  0  0
 12 24  1  0  0  0  0
 12 25  1  0  0  0  0
 12 26  1  0  0  0  0
M  END
