 xtb: 6.7.1 (edcfbbe)
          04112516153D

 26 25  0     0  0            999 V2000
    1.6215   -0.5035   -1.7048 C   0  0  0  0  0  0  0  0  0  0  0  0
    1.8319   -0.5890   -0.1950 C   0  0  0  0  0  0  0  0  0  0  0  0
    3.1651   -1.2405    0.1479 C   0  0  0  0  0  0  0  0  0  0  0  0
    0.7143   -1.3300    0.4736 C   0  0  0  0  0  0  0  0  0  0  0  0
   -0.5315   -1.1288    0.4504 N   0  0  0  0  0  0  0  0  0  0  0  0
   -0.9903   -0.0459   -0.3260 O   0  0  0  0  0  0  0  0  0  0  0  0
   -2.3397    0.1891   -0.2572 C   0  0  0  0  0  0  0  0  0  0  0  0
   -2.7726    1.0972   -0.9432 O   0  0  0  0  0  0  0  0  0  0  0  0
   -3.0343   -0.6025    0.5484 N   0  0  0  0  0  0  0  0  0  0  0  0
   -4.4612   -0.4802    0.7384 C   0  0  0  0  0  0  0  0  0  0  0  0
    1.7253    1.1206    0.5702 S   0  0  0  0  0  0  0  0  0  0  0  0
    3.2216    1.9316   -0.0669 C   0  0  0  0  0  0  0  0  0  0  0  0
    1.5358   -1.5069   -2.1175 H   0  0  0  0  0  0  0  0  0  0  0  0
    0.7146    0.0498   -1.9376 H   0  0  0  0  0  0  0  0  0  0  0  0
    2.4666   -0.0085   -2.1761 H   0  0  0  0  0  0  0  0  0  0  0  0
    3.9800   -0.7419   -0.3690 H   0  0  0  0  0  0  0  0  0  0  0  0
    3.1507   -2.2818   -0.1664 H   0  0  0  0  0  0  0  0  0  0  0  0
    3.3456   -1.1953    1.2192 H   0  0  0  0  0  0  0  0  0  0  0  0
    0.9820   -2.1700    1.1013 H   0  0  0  0  0  0  0  0  0  0  0  0
   -2.5255   -1.3165    1.0546 H   0  0  0  0  0  0  0  0  0  0  0  0
   -4.8177    0.3299    0.1055 H   0  0  0  0  0  0  0  0  0  0  0  0
   -4.6807   -0.2515    1.7803 H   0  0  0  0  0  0  0  0  0  0  0  0
   -4.9546   -1.4088    0.4558 H   0  0  0  0  0  0  0  0  0  0  0  0
    3.2290    1.8984   -1.1509 H   0  0  0  0  0  0  0  0  0  0  0  0
    4.1068    1.4705    0.3567 H   0  0  0  0  0  0  0  0  0  0  0  0
    3.1431    2.9607    0.2681 H   0  0  0  0  0  0  0  0  0  0  0  0
  1  2  1  0  0  0  0
  2  3  1  0  0  0  0
  2  4  1  0  0  0  0
  4  5  2  0  0  0  0
  5  6  1  0  0  0  0
  6  7  1  0  0  0  0
  7  8  2  0  0  0  0
  7  9  4  0  0  0  0
  9 10  1  0  0  0  0
  2 11  1  0  0  0  0
 11 12  1  0  0  0  0
  1 13  1  0  0  0  0
  1 14  1  0  0  0  0
  1 15  1  0  0  0  0
  3 16  1  0  0  0  0
  3 17  1  0  0  0  0
  3 18  1  0  0  0  0
  4 19  1  0  0  0  0
  9 20  1  0  0  0  0
 10 21  1  0  0  0  0
 10 22  1  0  0  0  0
 10 23  1  0  0  0  0
 12 24  1  0  0  0  0
 12 25  1  0  0  0  0
 12 26  1  0  0  0  0
M  END
