 xtb: 6.7.1 (edcfbbe)
          04112516263D

 20 19  0     0  0            999 V2000
   -3.1335   -0.8225   -0.0251 C   0  0  0  0  0  0  0  0  0  0  0  0
   -2.3011    0.2878   -0.6578 C   0  0  0  0  0  0  0  0  0  0  0  0
   -1.4402    1.0452    0.3549 C   0  0  0  0  0  0  0  0  0  0  0  0
   -0.2885    0.2189    0.9317 C   0  0  0  0  0  0  0  0  0  0  0  0
    0.8829    0.0893   -0.0064 C   0  0  0  0  0  0  0  0  0  0  0  0
    0.8512    0.2010   -1.2128 O   0  0  0  0  0  0  0  0  0  0  0  0
    1.9956   -0.1788    0.6755 O   0  0  0  0  0  0  0  0  0  0  0  0
    3.2225   -0.3531   -0.0395 C   0  0  0  0  0  0  0  0  0  0  0  0
   -3.7380   -0.4267    0.7880 H   0  0  0  0  0  0  0  0  0  0  0  0
   -3.7984   -1.2592   -0.7659 H   0  0  0  0  0  0  0  0  0  0  0  0
   -2.5043   -1.6172    0.3676 H   0  0  0  0  0  0  0  0  0  0  0  0
   -1.6579   -0.1237   -1.4372 H   0  0  0  0  0  0  0  0  0  0  0  0
   -2.9761    1.0038   -1.1312 H   0  0  0  0  0  0  0  0  0  0  0  0
   -2.0736    1.3788    1.1783 H   0  0  0  0  0  0  0  0  0  0  0  0
   -1.0240    1.9295   -0.1319 H   0  0  0  0  0  0  0  0  0  0  0  0
   -0.6277   -0.7921    1.1651 H   0  0  0  0  0  0  0  0  0  0  0  0
    0.0835    0.6583    1.8574 H   0  0  0  0  0  0  0  0  0  0  0  0
    3.0156   -0.6122   -1.0783 H   0  0  0  0  0  0  0  0  0  0  0  0
    3.7636   -1.1506    0.4630 H   0  0  0  0  0  0  0  0  0  0  0  0
    3.7895    0.5767    0.0028 H   0  0  0  0  0  0  0  0  0  0  0  0
  1  2  1  0  0  0  0
  2  3  1  0  0  0  0
  3  4  1  0  0  0  0
  4  5  1  0  0  0  0
  5  6  2  0  0  0  0
  5  7  1  0  0  0  0
  7  8  1  0  0  0  0
  1  9  1  0  0  0  0
  1 10  1  0  0  0  0
  1 11  1  0  0  0  0
  2 12  1  0  0  0  0
  2 13  1  0  0  0  0
  3 14  1  0  0  0  0
  3 15  1  0  0  0  0
  4 16  1  0  0  0  0
  4 17  1  0  0  0  0
  8 18  1  0  0  0  0
  8 19  1  0  0  0  0
  8 20  1  0  0  0  0
M  END
