 xtb: 6.7.1 (edcfbbe)
          04112514463D

 23 22  0     0  0            999 V2000
    2.6238    0.5532    0.4184 C   0  0  0  0  0  0  0  0  0  0  0  0
    1.8207   -0.7424    0.4402 C   0  0  0  0  0  0  0  0  0  0  0  0
    0.8992   -0.9023   -0.7705 C   0  0  0  0  0  0  0  0  0  0  0  0
   -0.1721    0.1810   -0.9185 C   0  0  0  0  0  0  0  0  0  0  0  0
   -1.1340    0.3267    0.2664 C   0  0  0  0  0  0  0  0  0  0  0  0
   -2.0947    1.4859    0.0015 C   0  0  0  0  0  0  0  0  0  0  0  0
   -1.9246   -0.9549    0.5193 C   0  0  0  0  0  0  0  0  0  0  0  0
    1.9724    1.4175    0.5154 H   0  0  0  0  0  0  0  0  0  0  0  0
    3.3336    0.5702    1.2422 H   0  0  0  0  0  0  0  0  0  0  0  0
    3.1776    0.6409   -0.5139 H   0  0  0  0  0  0  0  0  0  0  0  0
    1.2358   -0.7921    1.3601 H   0  0  0  0  0  0  0  0  0  0  0  0
    2.5141   -1.5871    0.4510 H   0  0  0  0  0  0  0  0  0  0  0  0
    1.5120   -0.8931   -1.6758 H   0  0  0  0  0  0  0  0  0  0  0  0
    0.4188   -1.8810   -0.7164 H   0  0  0  0  0  0  0  0  0  0  0  0
    0.3168    1.1423   -1.0885 H   0  0  0  0  0  0  0  0  0  0  0  0
   -0.7591   -0.0448   -1.8129 H   0  0  0  0  0  0  0  0  0  0  0  0
   -0.5569    0.5647    1.1657 H   0  0  0  0  0  0  0  0  0  0  0  0
   -2.7630    1.6297    0.8474 H   0  0  0  0  0  0  0  0  0  0  0  0
   -1.5466    2.4110   -0.1631 H   0  0  0  0  0  0  0  0  0  0  0  0
   -2.6976    1.2833   -0.8813 H   0  0  0  0  0  0  0  0  0  0  0  0
   -2.4602   -1.2519   -0.3801 H   0  0  0  0  0  0  0  0  0  0  0  0
   -2.6502   -0.7985    1.3145 H   0  0  0  0  0  0  0  0  0  0  0  0
   -1.2688   -1.7688    0.8163 H   0  0  0  0  0  0  0  0  0  0  0  0
  1  2  1  0  0  0  0
  2  3  1  0  0  0  0
  3  4  1  0  0  0  0
  4  5  1  0  0  0  0
  5  6  1  0  0  0  0
  5  7  1  0  0  0  0
  1  8  1  0  0  0  0
  1  9  1  0  0  0  0
  1 10  1  0  0  0  0
  2 11  1  0  0  0  0
  2 12  1  0  0  0  0
  3 13  1  0  0  0  0
  3 14  1  0  0  0  0
  4 15  1  0  0  0  0
  4 16  1  0  0  0  0
  5 17  1  0  0  0  0
  6 18  1  0  0  0  0
  6 19  1  0  0  0  0
  6 20  1  0  0  0  0
  7 21  1  0  0  0  0
  7 22  1  0  0  0  0
  7 23  1  0  0  0  0
M  END
