 xtb: 6.7.1 (edcfbbe)
          04112514233D

 23 22  0     0  0            999 V2000
    1.2772    0.9086   -1.2447 C   0  0  0  0  0  0  0  0  0  0  0  0
    2.1178   -0.0681   -0.4247 C   0  0  0  0  0  0  0  0  0  0  0  0
    2.6938    0.6302    0.8060 C   0  0  0  0  0  0  0  0  0  0  0  0
    1.3382   -1.3376   -0.0484 C   0  0  0  0  0  0  0  0  0  0  0  0
    0.0566   -1.1203    0.7524 C   0  0  0  0  0  0  0  0  0  0  0  0
   -1.0358   -0.8094   -0.1265 O   0  0  0  0  0  0  0  0  0  0  0  0
   -1.7897    0.2521    0.1160 C   0  0  0  0  0  0  0  0  0  0  0  0
   -1.6280    0.9957    1.0644 O   0  0  0  0  0  0  0  0  0  0  0  0
   -2.8492    0.4249   -0.9313 C   0  0  0  0  0  0  0  0  0  0  0  0
    1.9054    1.7029   -1.6412 H   0  0  0  0  0  0  0  0  0  0  0  0
    0.5088    1.3705   -0.6278 H   0  0  0  0  0  0  0  0  0  0  0  0
    0.7967    0.3997   -2.0770 H   0  0  0  0  0  0  0  0  0  0  0  0
    2.9570   -0.3977   -1.0480 H   0  0  0  0  0  0  0  0  0  0  0  0
    3.2837   -0.0622    1.4013 H   0  0  0  0  0  0  0  0  0  0  0  0
    1.9017    1.0371    1.4308 H   0  0  0  0  0  0  0  0  0  0  0  0
    3.3337    1.4546    0.5013 H   0  0  0  0  0  0  0  0  0  0  0  0
    1.9919   -1.9796    0.5429 H   0  0  0  0  0  0  0  0  0  0  0  0
    1.0682   -1.8760   -0.9587 H   0  0  0  0  0  0  0  0  0  0  0  0
   -0.2229   -2.0437    1.2670 H   0  0  0  0  0  0  0  0  0  0  0  0
    0.1558   -0.3182    1.4878 H   0  0  0  0  0  0  0  0  0  0  0  0
   -2.9478   -0.4857   -1.5118 H   0  0  0  0  0  0  0  0  0  0  0  0
   -2.5566    1.2447   -1.5842 H   0  0  0  0  0  0  0  0  0  0  0  0
   -3.7883    0.6916   -0.4557 H   0  0  0  0  0  0  0  0  0  0  0  0
  1  2  1  0  0  0  0
  2  3  1  0  0  0  0
  2  4  1  0  0  0  0
  4  5  1  0  0  0  0
  5  6  1  0  0  0  0
  6  7  1  0  0  0  0
  7  8  2  0  0  0  0
  7  9  1  0  0  0  0
  1 10  1  0  0  0  0
  1 11  1  0  0  0  0
  1 12  1  0  0  0  0
  2 13  1  0  0  0  0
  3 14  1  0  0  0  0
  3 15  1  0  0  0  0
  3 16  1  0  0  0  0
  4 17  1  0  0  0  0
  4 18  1  0  0  0  0
  5 19  1  0  0  0  0
  5 20  1  0  0  0  0
  9 21  1  0  0  0  0
  9 22  1  0  0  0  0
  9 23  1  0  0  0  0
M  END
