 xtb: 6.7.1 (edcfbbe)
          04112516213D

 19 18  0     0  0            999 V2000
   -2.2952   -0.5256    0.8904 C   0  0  0  0  0  0  0  0  0  0  0  0
   -2.1805    0.1018   -0.4942 C   0  0  0  0  0  0  0  0  0  0  0  0
   -0.7434    0.2298   -1.0044 C   0  0  0  0  0  0  0  0  0  0  0  0
    0.1362    1.1821   -0.1833 C   0  0  0  0  0  0  0  0  0  0  0  0
    1.0089    0.4613    0.8529 C   0  0  0  0  0  0  0  0  0  0  0  0
    1.9691   -0.4181    0.2174 C   0  0  0  0  0  0  0  0  0  0  0  0
    2.7528   -1.1410   -0.3270 C   0  0  0  0  0  0  0  0  0  0  0  0
   -1.8734    0.1262    1.6509 H   0  0  0  0  0  0  0  0  0  0  0  0
   -1.7774   -1.4820    0.9188 H   0  0  0  0  0  0  0  0  0  0  0  0
   -3.3408   -0.6958    1.1383 H   0  0  0  0  0  0  0  0  0  0  0  0
   -2.7391   -0.5123   -1.2049 H   0  0  0  0  0  0  0  0  0  0  0  0
   -2.6448    1.0910   -0.4812 H   0  0  0  0  0  0  0  0  0  0  0  0
   -0.7902    0.5909   -2.0343 H   0  0  0  0  0  0  0  0  0  0  0  0
   -0.2758   -0.7572   -1.0302 H   0  0  0  0  0  0  0  0  0  0  0  0
   -0.4926    1.9125    0.3294 H   0  0  0  0  0  0  0  0  0  0  0  0
    0.7980    1.7317   -0.8565 H   0  0  0  0  0  0  0  0  0  0  0  0
    0.3899   -0.1311    1.5291 H   0  0  0  0  0  0  0  0  0  0  0  0
    1.5548    1.2003    1.4462 H   0  0  0  0  0  0  0  0  0  0  0  0
    3.4454   -1.7750   -0.7940 H   0  0  0  0  0  0  0  0  0  0  0  0
  1  2  1  0  0  0  0
  2  3  1  0  0  0  0
  3  4  1  0  0  0  0
  4  5  1  0  0  0  0
  5  6  1  0  0  0  0
  6  7  3  0  0  0  0
  1  8  1  0  0  0  0
  1  9  1  0  0  0  0
  1 10  1  0  0  0  0
  2 11  1  0  0  0  0
  2 12  1  0  0  0  0
  3 13  1  0  0  0  0
  3 14  1  0  0  0  0
  4 15  1  0  0  0  0
  4 16  1  0  0  0  0
  5 17  1  0  0  0  0
  5 18  1  0  0  0  0
  7 19  1  0  0  0  0
M  END
