 xtb: 6.7.1 (edcfbbe)
          04112516053D

 26 26  0     0  0            999 V2000
   -3.5203    0.2005   -1.3256 C   0  0  0  0  0  0  0  0  0  0  0  0
   -3.3287   -0.8182   -0.2093 C   0  0  0  0  0  0  0  0  0  0  0  0
   -2.5824   -0.2243    0.9932 C   0  0  0  0  0  0  0  0  0  0  0  0
   -1.1766    0.1619    0.6333 C   0  0  0  0  0  0  0  0  0  0  0  0
   -0.8228    1.4814    0.3946 C   0  0  0  0  0  0  0  0  0  0  0  0
    0.4716    1.7989    0.0307 C   0  0  0  0  0  0  0  0  0  0  0  0
    1.4531    0.8258   -0.1097 C   0  0  0  0  0  0  0  0  0  0  0  0
    1.1106   -0.5116    0.1332 C   0  0  0  0  0  0  0  0  0  0  0  0
   -0.1986   -0.8101    0.4987 C   0  0  0  0  0  0  0  0  0  0  0  0
    1.9309   -1.6073    0.0505 O   0  0  0  0  0  0  0  0  0  0  0  0
    3.3076   -1.4654   -0.2459 C   0  0  0  0  0  0  0  0  0  0  0  0
    2.7274    1.1768   -0.4780 O   0  0  0  0  0  0  0  0  0  0  0  0
   -4.0532   -0.2470   -2.1610 H   0  0  0  0  0  0  0  0  0  0  0  0
   -4.0934    1.0532   -0.9689 H   0  0  0  0  0  0  0  0  0  0  0  0
   -2.5567    0.5575   -1.6818 H   0  0  0  0  0  0  0  0  0  0  0  0
   -2.7660   -1.6723   -0.5907 H   0  0  0  0  0  0  0  0  0  0  0  0
   -4.3038   -1.1786    0.1243 H   0  0  0  0  0  0  0  0  0  0  0  0
   -2.5597   -0.9665    1.7934 H   0  0  0  0  0  0  0  0  0  0  0  0
   -3.1237    0.6522    1.3525 H   0  0  0  0  0  0  0  0  0  0  0  0
   -1.5561    2.2669    0.4916 H   0  0  0  0  0  0  0  0  0  0  0  0
    0.7361    2.8305   -0.1538 H   0  0  0  0  0  0  0  0  0  0  0  0
   -0.4275   -1.8493    0.6794 H   0  0  0  0  0  0  0  0  0  0  0  0
    3.8138   -0.8471    0.4977 H   0  0  0  0  0  0  0  0  0  0  0  0
    3.4611   -1.0384   -1.2385 H   0  0  0  0  0  0  0  0  0  0  0  0
    3.7041   -2.4786   -0.2146 H   0  0  0  0  0  0  0  0  0  0  0  0
    2.7787    2.1371   -0.5950 H   0  0  0  0  0  0  0  0  0  0  0  0
  1  2  1  0  0  0  0
  2  3  1  0  0  0  0
  3  4  1  0  0  0  0
  4  5  4  0  0  0  0
  5  6  4  0  0  0  0
  6  7  4  0  0  0  0
  7  8  4  0  0  0  0
  4  9  4  0  0  0  0
  8  9  4  0  0  0  0
  8 10  1  0  0  0  0
 10 11  1  0  0  0  0
  7 12  1  0  0  0  0
  1 13  1  0  0  0  0
  1 14  1  0  0  0  0
  1 15  1  0  0  0  0
  2 16  1  0  0  0  0
  2 17  1  0  0  0  0
  3 18  1  0  0  0  0
  3 19  1  0  0  0  0
  5 20  1  0  0  0  0
  6 21  1  0  0  0  0
  9 22  1  0  0  0  0
 11 23  1  0  0  0  0
 11 24  1  0  0  0  0
 11 25  1  0  0  0  0
 12 26  1  0  0  0  0
M  END
