 xtb: 6.7.1 (edcfbbe)
          04112516013D

 20 19  0     0  0            999 V2000
   -3.6684   -0.7213   -0.1177 C   0  0  0  0  0  0  0  0  0  0  0  0
   -2.3251   -0.3396    0.4922 C   0  0  0  0  0  0  0  0  0  0  0  0
   -1.5524    0.6226   -0.4086 C   0  0  0  0  0  0  0  0  0  0  0  0
   -0.2004    1.0005    0.1824 C   0  0  0  0  0  0  0  0  0  0  0  0
    0.6399   -0.1624    0.2315 O   0  0  0  0  0  0  0  0  0  0  0  0
    1.9281   -0.0386   -0.0595 C   0  0  0  0  0  0  0  0  0  0  0  0
    2.4500    1.0140   -0.3689 O   0  0  0  0  0  0  0  0  0  0  0  0
    2.6476   -1.3487    0.0562 C   0  0  0  0  0  0  0  0  0  0  0  0
   -4.2816    0.1636   -0.2710 H   0  0  0  0  0  0  0  0  0  0  0  0
   -3.5267   -1.2103   -1.0785 H   0  0  0  0  0  0  0  0  0  0  0  0
   -4.2041   -1.4019    0.5386 H   0  0  0  0  0  0  0  0  0  0  0  0
   -2.4873    0.1312    1.4637 H   0  0  0  0  0  0  0  0  0  0  0  0
   -1.7241   -1.2361    0.6515 H   0  0  0  0  0  0  0  0  0  0  0  0
   -1.3952    0.1631   -1.3860 H   0  0  0  0  0  0  0  0  0  0  0  0
   -2.1262    1.5391   -0.5504 H   0  0  0  0  0  0  0  0  0  0  0  0
    0.3023    1.7650   -0.4187 H   0  0  0  0  0  0  0  0  0  0  0  0
   -0.3117    1.3682    1.2070 H   0  0  0  0  0  0  0  0  0  0  0  0
    3.1118   -1.3977    1.0391 H   0  0  0  0  0  0  0  0  0  0  0  0
    3.4305   -1.4004   -0.6940 H   0  0  0  0  0  0  0  0  0  0  0  0
    1.9461   -2.1692   -0.0477 H   0  0  0  0  0  0  0  0  0  0  0  0
  1  2  1  0  0  0  0
  2  3  1  0  0  0  0
  3  4  1  0  0  0  0
  4  5  1  0  0  0  0
  5  6  1  0  0  0  0
  6  7  2  0  0  0  0
  6  8  1  0  0  0  0
  1  9  1  0  0  0  0
  1 10  1  0  0  0  0
  1 11  1  0  0  0  0
  2 12  1  0  0  0  0
  2 13  1  0  0  0  0
  3 14  1  0  0  0  0
  3 15  1  0  0  0  0
  4 16  1  0  0  0  0
  4 17  1  0  0  0  0
  8 18  1  0  0  0  0
  8 19  1  0  0  0  0
  8 20  1  0  0  0  0
M  END
