 xtb: 6.7.1 (edcfbbe)
          04112516153D

 26 25  0     0  0            999 V2000
    1.0763   -0.6394   -1.6276 C   0  0  0  0  0  0  0  0  0  0  0  0
    1.8129   -0.6385   -0.3008 C   0  0  0  0  0  0  0  0  0  0  0  0
    3.0517   -1.5292   -0.3628 C   0  0  0  0  0  0  0  0  0  0  0  0
    1.0304   -0.9384    0.9305 C   0  0  0  0  0  0  0  0  0  0  0  0
   -0.2007   -1.0305    1.1967 N   0  0  0  0  0  0  0  0  0  0  0  0
   -1.1327   -0.9924    0.1188 O   0  0  0  0  0  0  0  0  0  0  0  0
   -2.1185   -0.0572    0.2528 C   0  0  0  0  0  0  0  0  0  0  0  0
   -2.0272    0.9096    0.9868 O   0  0  0  0  0  0  0  0  0  0  0  0
   -3.1238   -0.3358   -0.5758 N   0  0  0  0  0  0  0  0  0  0  0  0
   -4.2809    0.5189   -0.7242 C   0  0  0  0  0  0  0  0  0  0  0  0
    2.4553    1.0754    0.1061 S   0  0  0  0  0  0  0  0  0  0  0  0
    0.9813    2.1281    0.0569 C   0  0  0  0  0  0  0  0  0  0  0  0
    0.6792   -1.6335   -1.8227 H   0  0  0  0  0  0  0  0  0  0  0  0
    0.2497    0.0662   -1.6334 H   0  0  0  0  0  0  0  0  0  0  0  0
    1.7689   -0.3706   -2.4219 H   0  0  0  0  0  0  0  0  0  0  0  0
    3.6160   -1.4674    0.5640 H   0  0  0  0  0  0  0  0  0  0  0  0
    3.6933   -1.2061   -1.1779 H   0  0  0  0  0  0  0  0  0  0  0  0
    2.7529   -2.5610   -0.5307 H   0  0  0  0  0  0  0  0  0  0  0  0
    1.6320   -1.0409    1.8267 H   0  0  0  0  0  0  0  0  0  0  0  0
   -3.0742   -1.1854   -1.1175 H   0  0  0  0  0  0  0  0  0  0  0  0
   -5.1842   -0.0228   -0.4478 H   0  0  0  0  0  0  0  0  0  0  0  0
   -4.3622    0.8650   -1.7537 H   0  0  0  0  0  0  0  0  0  0  0  0
   -4.1535    1.3724   -0.0615 H   0  0  0  0  0  0  0  0  0  0  0  0
    1.2790    3.0655    0.5150 H   0  0  0  0  0  0  0  0  0  0  0  0
    0.1727    1.6859    0.6341 H   0  0  0  0  0  0  0  0  0  0  0  0
    0.6808    2.2992   -0.9725 H   0  0  0  0  0  0  0  0  0  0  0  0
  1  2  1  0  0  0  0
  2  3  1  0  0  0  0
  2  4  1  0  0  0  0
  4  5  2  0  0  0  0
  5  6  1  0  0  0  0
  6  7  1  0  0  0  0
  7  8  2  0  0  0  0
  7  9  4  0  0  0  0
  9 10  1  0  0  0  0
  2 11  1  0  0  0  0
 11 12  1  0  0  0  0
  1 13  1  0  0  0  0
  1 14  1  0  0  0  0
  1 15  1  0  0  0  0
  3 16  1  0  0  0  0
  3 17  1  0  0  0  0
  3 18  1  0  0  0  0
  4 19  1  0  0  0  0
  9 20  1  0  0  0  0
 10 21  1  0  0  0  0
 10 22  1  0  0  0  0
 10 23  1  0  0  0  0
 12 24  1  0  0  0  0
 12 25  1  0  0  0  0
 12 26  1  0  0  0  0
M  END
