 xtb: 6.7.1 (edcfbbe)
          04112517153D

 20 19  0     0  0            999 V2000
   -3.9273   -0.1633   -0.3238 C   0  0  0  0  0  0  0  0  0  0  0  0
   -2.7036    0.0073    0.5682 C   0  0  0  0  0  0  0  0  0  0  0  0
   -1.4069   -0.1156   -0.2281 C   0  0  0  0  0  0  0  0  0  0  0  0
   -0.1781    0.0464    0.6619 C   0  0  0  0  0  0  0  0  0  0  0  0
    1.1066   -0.0356   -0.1182 C   0  0  0  0  0  0  0  0  0  0  0  0
    1.2000   -0.0815   -1.3258 O   0  0  0  0  0  0  0  0  0  0  0  0
    2.1640   -0.0476    0.6913 O   0  0  0  0  0  0  0  0  0  0  0  0
    3.4579   -0.1106    0.0850 C   0  0  0  0  0  0  0  0  0  0  0  0
   -4.8404   -0.0716    0.2587 H   0  0  0  0  0  0  0  0  0  0  0  0
   -3.9380    0.5944   -1.1038 H   0  0  0  0  0  0  0  0  0  0  0  0
   -3.9183   -1.1413   -0.7992 H   0  0  0  0  0  0  0  0  0  0  0  0
   -2.7400    0.9863    1.0499 H   0  0  0  0  0  0  0  0  0  0  0  0
   -2.7183   -0.7517    1.3527 H   0  0  0  0  0  0  0  0  0  0  0  0
   -1.3799    0.6424   -1.0134 H   0  0  0  0  0  0  0  0  0  0  0  0
   -1.3667   -1.0894   -0.7203 H   0  0  0  0  0  0  0  0  0  0  0  0
   -0.1503   -0.7190    1.4391 H   0  0  0  0  0  0  0  0  0  0  0  0
   -0.1943    1.0166    1.1635 H   0  0  0  0  0  0  0  0  0  0  0  0
    3.5409   -1.0118   -0.5235 H   0  0  0  0  0  0  0  0  0  0  0  0
    4.1653   -0.1276    0.9078 H   0  0  0  0  0  0  0  0  0  0  0  0
    3.6151    0.7618   -0.5502 H   0  0  0  0  0  0  0  0  0  0  0  0
  1  2  1  0  0  0  0
  2  3  1  0  0  0  0
  3  4  1  0  0  0  0
  4  5  1  0  0  0  0
  5  6  2  0  0  0  0
  5  7  1  0  0  0  0
  7  8  1  0  0  0  0
  1  9  1  0  0  0  0
  1 10  1  0  0  0  0
  1 11  1  0  0  0  0
  2 12  1  0  0  0  0
  2 13  1  0  0  0  0
  3 14  1  0  0  0  0
  3 15  1  0  0  0  0
  4 16  1  0  0  0  0
  4 17  1  0  0  0  0
  8 18  1  0  0  0  0
  8 19  1  0  0  0  0
  8 20  1  0  0  0  0
M  END
