 xtb: 6.7.1 (edcfbbe)
          04112516343D

 33 34  0     0  0            999 V2000
   -4.1503   -1.0428    1.6443 C   0  0  0  0  0  0  0  0  0  0  0  0
   -3.3973   -0.4623    0.4862 C   0  0  0  0  0  0  0  0  0  0  0  0
   -4.0545   -0.2166   -0.7113 C   0  0  0  0  0  0  0  0  0  0  0  0
   -3.3870    0.3400   -1.7878 C   0  0  0  0  0  0  0  0  0  0  0  0
   -2.0403    0.6229   -1.6833 C   0  0  0  0  0  0  0  0  0  0  0  0
   -1.3583    0.3565   -0.4994 C   0  0  0  0  0  0  0  0  0  0  0  0
   -2.0382   -0.1549    0.6110 C   0  0  0  0  0  0  0  0  0  0  0  0
   -1.3462   -0.3469    1.9265 C   0  0  0  0  0  0  0  0  0  0  0  0
    0.0137    0.6738   -0.4437 N   0  0  0  0  0  0  0  0  0  0  0  0
    1.0196   -0.1937   -0.1746 C   0  0  0  0  0  0  0  0  0  0  0  0
    0.7453   -1.5698   -0.0562 C   0  0  0  0  0  0  0  0  0  0  0  0
    1.7287   -2.4798    0.2370 C   0  0  0  0  0  0  0  0  0  0  0  0
    3.0462   -2.0631    0.4247 C   0  0  0  0  0  0  0  0  0  0  0  0
    3.3464   -0.7317    0.2885 C   0  0  0  0  0  0  0  0  0  0  0  0
    2.3647    0.2252   -0.0164 C   0  0  0  0  0  0  0  0  0  0  0  0
    2.8459    1.5969   -0.1371 C   0  0  0  0  0  0  0  0  0  0  0  0
    4.0048    1.9328    0.0718 O   0  0  0  0  0  0  0  0  0  0  0  0
    1.9458    2.5227   -0.5040 O   0  0  0  0  0  0  0  0  0  0  0  0
   -3.6435   -1.9251    2.0298 H   0  0  0  0  0  0  0  0  0  0  0  0
   -4.2219   -0.3189    2.4553 H   0  0  0  0  0  0  0  0  0  0  0  0
   -5.1568   -1.3200    1.3437 H   0  0  0  0  0  0  0  0  0  0  0  0
   -5.1045   -0.4541   -0.7982 H   0  0  0  0  0  0  0  0  0  0  0  0
   -3.9132    0.5424   -2.7081 H   0  0  0  0  0  0  0  0  0  0  0  0
   -1.5004    1.0420   -2.5190 H   0  0  0  0  0  0  0  0  0  0  0  0
   -0.3867    0.1617    1.9433 H   0  0  0  0  0  0  0  0  0  0  0  0
   -1.9617    0.0479    2.7318 H   0  0  0  0  0  0  0  0  0  0  0  0
   -1.1727   -1.4039    2.1263 H   0  0  0  0  0  0  0  0  0  0  0  0
    0.2728    1.5949   -0.7656 H   0  0  0  0  0  0  0  0  0  0  0  0
   -0.2662   -1.9023   -0.2275 H   0  0  0  0  0  0  0  0  0  0  0  0
    1.4814   -3.5276    0.3136 H   0  0  0  0  0  0  0  0  0  0  0  0
    3.8190   -2.7770    0.6596 H   0  0  0  0  0  0  0  0  0  0  0  0
    4.3585   -0.3737    0.4084 H   0  0  0  0  0  0  0  0  0  0  0  0
    2.3573    3.4063   -0.5537 H   0  0  0  0  0  0  0  0  0  0  0  0
  1  2  1  0  0  0  0
  2  3  4  0  0  0  0
  3  4  4  0  0  0  0
  4  5  4  0  0  0  0
  5  6  4  0  0  0  0
  2  7  4  0  0  0  0
  6  7  4  0  0  0  0
  7  8  1  0  0  0  0
  6  9  1  0  0  0  0
  9 10  4  0  0  0  0
 10 11  4  0  0  0  0
 11 12  2  0  0  0  0
 12 13  4  0  0  0  0
 13 14  2  0  0  0  0
 10 15  4  0  0  0  0
 14 15  4  0  0  0  0
 15 16  1  0  0  0  0
 16 17  2  0  0  0  0
 16 18  1  0  0  0  0
  1 19  1  0  0  0  0
  1 20  1  0  0  0  0
  1 21  1  0  0  0  0
  3 22  1  0  0  0  0
  4 23  1  0  0  0  0
  5 24  1  0  0  0  0
  8 25  1  0  0  0  0
  8 26  1  0  0  0  0
  8 27  1  0  0  0  0
  9 28  1  0  0  0  0
 11 29  1  0  0  0  0
 12 30  1  0  0  0  0
 13 31  1  0  0  0  0
 14 32  1  0  0  0  0
 18 33  1  0  0  0  0
M  END
