 xtb: 6.7.1 (edcfbbe)
          04112516353D

 13 13  0     0  0            999 V2000
    1.5222   -0.5572    1.3207 C   0  0  0  0  0  0  0  0  0  0  0  0
    1.7223   -0.0351   -0.0617 C   0  0  0  0  0  0  0  0  0  0  0  0
    2.6568   -0.3247   -0.7726 O   0  0  0  0  0  0  0  0  0  0  0  0
    0.6659    0.9417   -0.5770 C   0  0  0  0  0  0  0  0  0  0  0  0
   -0.4473    1.1185    0.2792 O   0  0  0  0  0  0  0  0  0  0  0  0
   -1.4413    0.1801    0.2155 N   0  0  0  0  0  0  0  0  0  0  0  0
   -1.2977   -0.7241   -0.5459 O   0  0  0  0  0  0  0  0  0  0  0  0
   -2.3465    0.3942    0.9546 O   0  0  0  0  0  0  0  0  0  0  0  0
    1.1789    0.2333    1.9832 H   0  0  0  0  0  0  0  0  0  0  0  0
    0.7613   -1.3376    1.2916 H   0  0  0  0  0  0  0  0  0  0  0  0
    2.4456   -0.9959    1.6864 H   0  0  0  0  0  0  0  0  0  0  0  0
    0.3464    0.6197   -1.5738 H   0  0  0  0  0  0  0  0  0  0  0  0
    1.1193    1.9327   -0.6554 H   0  0  0  0  0  0  0  0  0  0  0  0
  1  2  1  0  0  0  0
  2  3  2  0  0  0  0
  2  4  1  0  0  0  0
  4  5  1  0  0  0  0
  5  6  1  0  0  0  0
  6  7  4  0  0  0  0
  6  8  4  0  0  0  0
  7  8  1  0  0  0  0
  1  9  1  0  0  0  0
  1 10  1  0  0  0  0
  1 11  1  0  0  0  0
  4 12  1  0  0  0  0
  4 13  1  0  0  0  0
M  END
