 xtb: 6.7.1 (edcfbbe)
          04112514053D

 17 16  0     0  0            999 V2000
   -2.7451   -1.4680    0.0789 C   0  0  0  0  0  0  0  0  0  0  0  0
   -1.7815   -0.3524   -0.3156 C   0  0  0  0  0  0  0  0  0  0  0  0
   -2.0049    0.8943    0.5366 C   0  0  0  0  0  0  0  0  0  0  0  0
   -0.3445   -0.8555   -0.1596 C   0  0  0  0  0  0  0  0  0  0  0  0
    0.5536    0.1245   -0.6918 O   0  0  0  0  0  0  0  0  0  0  0  0
    1.6754    0.4274   -0.0052 N   0  0  0  0  0  0  0  0  0  0  0  0
    1.9083   -0.1647    1.0043 O   0  0  0  0  0  0  0  0  0  0  0  0
    2.3282    1.2878   -0.5129 O   0  0  0  0  0  0  0  0  0  0  0  0
   -2.5942   -1.7490    1.1181 H   0  0  0  0  0  0  0  0  0  0  0  0
   -2.5965   -2.3459   -0.5435 H   0  0  0  0  0  0  0  0  0  0  0  0
   -3.7701   -1.1304   -0.0409 H   0  0  0  0  0  0  0  0  0  0  0  0
   -1.9330   -0.0944   -1.3673 H   0  0  0  0  0  0  0  0  0  0  0  0
   -3.0257    1.2473    0.4228 H   0  0  0  0  0  0  0  0  0  0  0  0
   -1.3340    1.6940    0.2309 H   0  0  0  0  0  0  0  0  0  0  0  0
   -1.8318    0.6743    1.5880 H   0  0  0  0  0  0  0  0  0  0  0  0
   -0.1043   -1.0289    0.8932 H   0  0  0  0  0  0  0  0  0  0  0  0
   -0.1908   -1.7795   -0.7224 H   0  0  0  0  0  0  0  0  0  0  0  0
  1  2  1  0  0  0  0
  2  3  1  0  0  0  0
  2  4  1  0  0  0  0
  4  5  1  0  0  0  0
  5  6  1  0  0  0  0
  6  7  4  0  0  0  0
  6  8  4  0  0  0  0
  1  9  1  0  0  0  0
  1 10  1  0  0  0  0
  1 11  1  0  0  0  0
  2 12  1  0  0  0  0
  3 13  1  0  0  0  0
  3 14  1  0  0  0  0
  3 15  1  0  0  0  0
  4 16  1  0  0  0  0
  4 17  1  0  0  0  0
M  END
