 xtb: 6.7.1 (edcfbbe)
          04112516213D

 19 18  0     0  0            999 V2000
    2.9749   -0.3978   -0.2270 C   0  0  0  0  0  0  0  0  0  0  0  0
    2.1650    0.8298    0.1751 C   0  0  0  0  0  0  0  0  0  0  0  0
    0.7261    0.5051    0.5803 C   0  0  0  0  0  0  0  0  0  0  0  0
   -0.1135   -0.0112   -0.5946 C   0  0  0  0  0  0  0  0  0  0  0  0
   -1.5397   -0.2992   -0.1989 C   0  0  0  0  0  0  0  0  0  0  0  0
   -2.0239   -1.4093   -0.3196 O   0  0  0  0  0  0  0  0  0  0  0  0
   -2.3225    0.8536    0.3570 C   0  0  0  0  0  0  0  0  0  0  0  0
    4.0119   -0.1218   -0.4017 H   0  0  0  0  0  0  0  0  0  0  0  0
    2.9477   -1.1465    0.5618 H   0  0  0  0  0  0  0  0  0  0  0  0
    2.5876   -0.8444   -1.1388 H   0  0  0  0  0  0  0  0  0  0  0  0
    2.1557    1.5446   -0.6502 H   0  0  0  0  0  0  0  0  0  0  0  0
    2.6558    1.3100    1.0244 H   0  0  0  0  0  0  0  0  0  0  0  0
    0.2683    1.4101    0.9803 H   0  0  0  0  0  0  0  0  0  0  0  0
    0.7355   -0.2490    1.3703 H   0  0  0  0  0  0  0  0  0  0  0  0
   -0.1247    0.7429   -1.3842 H   0  0  0  0  0  0  0  0  0  0  0  0
    0.3184   -0.9300   -0.9928 H   0  0  0  0  0  0  0  0  0  0  0  0
   -2.0547    1.7830   -0.1343 H   0  0  0  0  0  0  0  0  0  0  0  0
   -3.3872    0.6600    0.2586 H   0  0  0  0  0  0  0  0  0  0  0  0
   -2.0916    0.9424    1.4172 H   0  0  0  0  0  0  0  0  0  0  0  0
  1  2  1  0  0  0  0
  2  3  1  0  0  0  0
  3  4  1  0  0  0  0
  4  5  1  0  0  0  0
  5  6  2  0  0  0  0
  5  7  1  0  0  0  0
  1  8  1  0  0  0  0
  1  9  1  0  0  0  0
  1 10  1  0  0  0  0
  2 11  1  0  0  0  0
  2 12  1  0  0  0  0
  3 13  1  0  0  0  0
  3 14  1  0  0  0  0
  4 15  1  0  0  0  0
  4 16  1  0  0  0  0
  7 17  1  0  0  0  0
  7 18  1  0  0  0  0
  7 19  1  0  0  0  0
M  END
