 xtb: 6.7.1 (edcfbbe)
          04112516353D

 19 18  0     0  0            999 V2000
    2.9004    0.4600   -0.7414 C   0  0  0  0  0  0  0  0  0  0  0  0
    2.2912    0.0668    0.6001 C   0  0  0  0  0  0  0  0  0  0  0  0
    0.8923   -0.5349    0.4717 C   0  0  0  0  0  0  0  0  0  0  0  0
   -0.1470    0.4691   -0.0209 C   0  0  0  0  0  0  0  0  0  0  0  0
   -1.5419   -0.1011   -0.0532 C   0  0  0  0  0  0  0  0  0  0  0  0
   -1.7759   -1.2818    0.1170 O   0  0  0  0  0  0  0  0  0  0  0  0
   -2.6295    0.9055   -0.3028 C   0  0  0  0  0  0  0  0  0  0  0  0
    3.9283    0.7870   -0.6050 H   0  0  0  0  0  0  0  0  0  0  0  0
    2.8986   -0.3888   -1.4216 H   0  0  0  0  0  0  0  0  0  0  0  0
    2.3466    1.2738   -1.2016 H   0  0  0  0  0  0  0  0  0  0  0  0
    2.2498    0.9420    1.2520 H   0  0  0  0  0  0  0  0  0  0  0  0
    2.9387   -0.6705    1.0790 H   0  0  0  0  0  0  0  0  0  0  0  0
    0.5729   -0.9155    1.4449 H   0  0  0  0  0  0  0  0  0  0  0  0
    0.9172   -1.3865   -0.2116 H   0  0  0  0  0  0  0  0  0  0  0  0
   -0.1480    1.3604    0.6091 H   0  0  0  0  0  0  0  0  0  0  0  0
    0.0903    0.7882   -1.0380 H   0  0  0  0  0  0  0  0  0  0  0  0
   -2.8074    1.4519    0.6216 H   0  0  0  0  0  0  0  0  0  0  0  0
   -2.3301    1.6175   -1.0652 H   0  0  0  0  0  0  0  0  0  0  0  0
   -3.5487    0.4027   -0.5901 H   0  0  0  0  0  0  0  0  0  0  0  0
  1  2  1  0  0  0  0
  2  3  1  0  0  0  0
  3  4  1  0  0  0  0
  4  5  1  0  0  0  0
  5  6  2  0  0  0  0
  5  7  1  0  0  0  0
  1  8  1  0  0  0  0
  1  9  1  0  0  0  0
  1 10  1  0  0  0  0
  2 11  1  0  0  0  0
  2 12  1  0  0  0  0
  3 13  1  0  0  0  0
  3 14  1  0  0  0  0
  4 15  1  0  0  0  0
  4 16  1  0  0  0  0
  7 17  1  0  0  0  0
  7 18  1  0  0  0  0
  7 19  1  0  0  0  0
M  END
