 xtb: 6.7.1 (edcfbbe)
          04112516053D

 26 26  0     0  0            999 V2000
   -3.1980   -0.8750    1.3644 C   0  0  0  0  0  0  0  0  0  0  0  0
   -3.5269    0.0655    0.2124 C   0  0  0  0  0  0  0  0  0  0  0  0
   -2.6050   -0.1549   -0.9950 C   0  0  0  0  0  0  0  0  0  0  0  0
   -1.1814    0.1965   -0.6719 C   0  0  0  0  0  0  0  0  0  0  0  0
   -0.7736    1.5222   -0.6146 C   0  0  0  0  0  0  0  0  0  0  0  0
    0.5289    1.8349   -0.2813 C   0  0  0  0  0  0  0  0  0  0  0  0
    1.4682    0.8513    0.0061 C   0  0  0  0  0  0  0  0  0  0  0  0
    1.0719   -0.4910   -0.0530 C   0  0  0  0  0  0  0  0  0  0  0  0
   -0.2473   -0.7852   -0.3901 C   0  0  0  0  0  0  0  0  0  0  0  0
    1.8439   -1.5971    0.1935 O   0  0  0  0  0  0  0  0  0  0  0  0
    3.2239   -1.4719    0.4817 C   0  0  0  0  0  0  0  0  0  0  0  0
    2.7534    1.1991    0.3385 O   0  0  0  0  0  0  0  0  0  0  0  0
   -3.8628   -0.6937    2.2054 H   0  0  0  0  0  0  0  0  0  0  0  0
   -3.3105   -1.9114    1.0539 H   0  0  0  0  0  0  0  0  0  0  0  0
   -2.1725   -0.7264    1.6952 H   0  0  0  0  0  0  0  0  0  0  0  0
   -3.4319    1.0993    0.5503 H   0  0  0  0  0  0  0  0  0  0  0  0
   -4.5608   -0.0930   -0.1006 H   0  0  0  0  0  0  0  0  0  0  0  0
   -2.9523    0.4700   -1.8203 H   0  0  0  0  0  0  0  0  0  0  0  0
   -2.6656   -1.1989   -1.3051 H   0  0  0  0  0  0  0  0  0  0  0  0
   -1.4732    2.3143   -0.8330 H   0  0  0  0  0  0  0  0  0  0  0  0
    0.8360    2.8704   -0.2400 H   0  0  0  0  0  0  0  0  0  0  0  0
   -0.5170   -1.8296   -0.4242 H   0  0  0  0  0  0  0  0  0  0  0  0
    3.3907   -0.9161    1.4061 H   0  0  0  0  0  0  0  0  0  0  0  0
    3.7593   -0.9859   -0.3359 H   0  0  0  0  0  0  0  0  0  0  0  0
    3.5772   -2.4949    0.5974 H   0  0  0  0  0  0  0  0  0  0  0  0
    2.8429    2.1636    0.3223 H   0  0  0  0  0  0  0  0  0  0  0  0
  1  2  1  0  0  0  0
  2  3  1  0  0  0  0
  3  4  1  0  0  0  0
  4  5  4  0  0  0  0
  5  6  4  0  0  0  0
  6  7  4  0  0  0  0
  7  8  4  0  0  0  0
  4  9  4  0  0  0  0
  8  9  4  0  0  0  0
  8 10  1  0  0  0  0
 10 11  1  0  0  0  0
  7 12  1  0  0  0  0
  1 13  1  0  0  0  0
  1 14  1  0  0  0  0
  1 15  1  0  0  0  0
  2 16  1  0  0  0  0
  2 17  1  0  0  0  0
  3 18  1  0  0  0  0
  3 19  1  0  0  0  0
  5 20  1  0  0  0  0
  6 21  1  0  0  0  0
  9 22  1  0  0  0  0
 11 23  1  0  0  0  0
 11 24  1  0  0  0  0
 11 25  1  0  0  0  0
 12 26  1  0  0  0  0
M  END
