 xtb: 6.7.1 (edcfbbe)
          04112516213D

 19 18  0     0  0            999 V2000
    2.3657   -0.7722   -0.1314 C   0  0  0  0  0  0  0  0  0  0  0  0
    1.6468    0.4833   -0.6121 C   0  0  0  0  0  0  0  0  0  0  0  0
    0.8292    1.1649    0.4860 C   0  0  0  0  0  0  0  0  0  0  0  0
   -0.2783    0.2742    1.0721 C   0  0  0  0  0  0  0  0  0  0  0  0
   -1.1749   -0.2886   -0.0030 C   0  0  0  0  0  0  0  0  0  0  0  0
   -1.1248   -1.4576   -0.3364 O   0  0  0  0  0  0  0  0  0  0  0  0
   -2.1432    0.6783   -0.6161 C   0  0  0  0  0  0  0  0  0  0  0  0
    1.6515   -1.5600    0.0960 H   0  0  0  0  0  0  0  0  0  0  0  0
    3.0349   -1.1413   -0.9048 H   0  0  0  0  0  0  0  0  0  0  0  0
    2.9525   -0.5605    0.7596 H   0  0  0  0  0  0  0  0  0  0  0  0
    0.9915    0.2195   -1.4461 H   0  0  0  0  0  0  0  0  0  0  0  0
    2.3843    1.1986   -0.9832 H   0  0  0  0  0  0  0  0  0  0  0  0
    0.3865    2.0755    0.0795 H   0  0  0  0  0  0  0  0  0  0  0  0
    1.4958    1.4542    1.3003 H   0  0  0  0  0  0  0  0  0  0  0  0
    0.1708   -0.5553    1.6188 H   0  0  0  0  0  0  0  0  0  0  0  0
   -0.8788    0.8714    1.7586 H   0  0  0  0  0  0  0  0  0  0  0  0
   -2.5409    0.2785   -1.5448 H   0  0  0  0  0  0  0  0  0  0  0  0
   -2.9657    0.8209    0.0827 H   0  0  0  0  0  0  0  0  0  0  0  0
   -1.6741    1.6420   -0.7859 H   0  0  0  0  0  0  0  0  0  0  0  0
  1  2  1  0  0  0  0
  2  3  1  0  0  0  0
  3  4  1  0  0  0  0
  4  5  1  0  0  0  0
  5  6  2  0  0  0  0
  5  7  1  0  0  0  0
  1  8  1  0  0  0  0
  1  9  1  0  0  0  0
  1 10  1  0  0  0  0
  2 11  1  0  0  0  0
  2 12  1  0  0  0  0
  3 13  1  0  0  0  0
  3 14  1  0  0  0  0
  4 15  1  0  0  0  0
  4 16  1  0  0  0  0
  7 17  1  0  0  0  0
  7 18  1  0  0  0  0
  7 19  1  0  0  0  0
M  END
