 xtb: 6.7.1 (edcfbbe)
          04112516113D

 17 16  0     0  0            999 V2000
   -3.4006   -0.4003    0.6098 C   0  0  0  0  0  0  0  0  0  0  0  0
   -2.2512   -0.5757   -0.3763 C   0  0  0  0  0  0  0  0  0  0  0  0
   -1.6668    0.7603   -0.8419 C   0  0  0  0  0  0  0  0  0  0  0  0
   -0.8204    1.4680    0.2275 C   0  0  0  0  0  0  0  0  0  0  0  0
    0.6726    1.3809   -0.0224 C   0  0  0  0  0  0  0  0  0  0  0  0
    1.3574   -0.4698    0.0644 Br  0  0  0  0  0  0  0  0  0  0  0  0
   -4.2073    0.1697    0.1543 H   0  0  0  0  0  0  0  0  0  0  0  0
   -3.0767    0.1238    1.5057 H   0  0  0  0  0  0  0  0  0  0  0  0
   -3.7908   -1.3701    0.9081 H   0  0  0  0  0  0  0  0  0  0  0  0
   -1.4684   -1.1846    0.0787 H   0  0  0  0  0  0  0  0  0  0  0  0
   -2.6184   -1.1176   -1.2504 H   0  0  0  0  0  0  0  0  0  0  0  0
   -1.0523    0.5868   -1.7282 H   0  0  0  0  0  0  0  0  0  0  0  0
   -2.4915    1.4085   -1.1424 H   0  0  0  0  0  0  0  0  0  0  0  0
   -1.0617    2.5330    0.2496 H   0  0  0  0  0  0  0  0  0  0  0  0
   -1.0461    1.0587    1.2133 H   0  0  0  0  0  0  0  0  0  0  0  0
    1.2385    1.9253    0.7316 H   0  0  0  0  0  0  0  0  0  0  0  0
    0.9384    1.7357   -1.0168 H   0  0  0  0  0  0  0  0  0  0  0  0
  1  2  1  0  0  0  0
  2  3  1  0  0  0  0
  3  4  1  0  0  0  0
  4  5  1  0  0  0  0
  5  6  1  0  0  0  0
  1  7  1  0  0  0  0
  1  8  1  0  0  0  0
  1  9  1  0  0  0  0
  2 10  1  0  0  0  0
  2 11  1  0  0  0  0
  3 12  1  0  0  0  0
  3 13  1  0  0  0  0
  4 14  1  0  0  0  0
  4 15  1  0  0  0  0
  5 16  1  0  0  0  0
  5 17  1  0  0  0  0
M  END
