 xtb: 6.7.1 (edcfbbe)
          04112514233D

 23 22  0     0  0            999 V2000
    3.0360   -0.5686    1.1300 C   0  0  0  0  0  0  0  0  0  0  0  0
    2.3238    0.5469    0.3672 C   0  0  0  0  0  0  0  0  0  0  0  0
    2.6623    0.4812   -1.1210 C   0  0  0  0  0  0  0  0  0  0  0  0
    0.8086    0.5365    0.6112 C   0  0  0  0  0  0  0  0  0  0  0  0
    0.0937   -0.7102    0.0953 C   0  0  0  0  0  0  0  0  0  0  0  0
   -1.2945   -0.6770    0.4594 O   0  0  0  0  0  0  0  0  0  0  0  0
   -2.1414   -0.0230   -0.3278 C   0  0  0  0  0  0  0  0  0  0  0  0
   -1.8113    0.5246   -1.3600 O   0  0  0  0  0  0  0  0  0  0  0  0
   -3.5362   -0.0503    0.2210 C   0  0  0  0  0  0  0  0  0  0  0  0
    2.7629   -0.5499    2.1819 H   0  0  0  0  0  0  0  0  0  0  0  0
    4.1127   -0.4408    1.0529 H   0  0  0  0  0  0  0  0  0  0  0  0
    2.7824   -1.5426    0.7203 H   0  0  0  0  0  0  0  0  0  0  0  0
    2.6875    1.5058    0.7538 H   0  0  0  0  0  0  0  0  0  0  0  0
    3.7214    0.6740   -1.2722 H   0  0  0  0  0  0  0  0  0  0  0  0
    2.0946    1.2237   -1.6770 H   0  0  0  0  0  0  0  0  0  0  0  0
    2.4361   -0.5014   -1.5271 H   0  0  0  0  0  0  0  0  0  0  0  0
    0.3633    1.4066    0.1213 H   0  0  0  0  0  0  0  0  0  0  0  0
    0.6159    0.6191    1.6832 H   0  0  0  0  0  0  0  0  0  0  0  0
    0.1651   -0.7771   -0.9936 H   0  0  0  0  0  0  0  0  0  0  0  0
    0.4775   -1.6163    0.5628 H   0  0  0  0  0  0  0  0  0  0  0  0
   -4.2446   -0.1696   -0.5931 H   0  0  0  0  0  0  0  0  0  0  0  0
   -3.7327    0.9040    0.7051 H   0  0  0  0  0  0  0  0  0  0  0  0
   -3.6325   -0.8494    0.9478 H   0  0  0  0  0  0  0  0  0  0  0  0
  1  2  1  0  0  0  0
  2  3  1  0  0  0  0
  2  4  1  0  0  0  0
  4  5  1  0  0  0  0
  5  6  1  0  0  0  0
  6  7  1  0  0  0  0
  7  8  2  0  0  0  0
  7  9  1  0  0  0  0
  1 10  1  0  0  0  0
  1 11  1  0  0  0  0
  1 12  1  0  0  0  0
  2 13  1  0  0  0  0
  3 14  1  0  0  0  0
  3 15  1  0  0  0  0
  3 16  1  0  0  0  0
  4 17  1  0  0  0  0
  4 18  1  0  0  0  0
  5 19  1  0  0  0  0
  5 20  1  0  0  0  0
  9 21  1  0  0  0  0
  9 22  1  0  0  0  0
  9 23  1  0  0  0  0
M  END
