 xtb: 6.7.1 (edcfbbe)
          04112516013D

 20 19  0     0  0            999 V2000
   -3.4410   -0.2675   -0.7200 C   0  0  0  0  0  0  0  0  0  0  0  0
   -2.8192    0.5246    0.4250 C   0  0  0  0  0  0  0  0  0  0  0  0
   -1.4802   -0.0457    0.8926 C   0  0  0  0  0  0  0  0  0  0  0  0
   -0.3856    0.0971   -0.1560 C   0  0  0  0  0  0  0  0  0  0  0  0
    0.8443   -0.3701    0.4173 O   0  0  0  0  0  0  0  0  0  0  0  0
    1.9824   -0.0236   -0.1715 C   0  0  0  0  0  0  0  0  0  0  0  0
    2.0304    0.6551   -1.1777 O   0  0  0  0  0  0  0  0  0  0  0  0
    3.1720   -0.5551    0.5691 C   0  0  0  0  0  0  0  0  0  0  0  0
   -3.5360   -1.3162   -0.4492 H   0  0  0  0  0  0  0  0  0  0  0  0
   -4.4313    0.1191   -0.9467 H   0  0  0  0  0  0  0  0  0  0  0  0
   -2.8365   -0.1954   -1.6201 H   0  0  0  0  0  0  0  0  0  0  0  0
   -2.6817    1.5628    0.1171 H   0  0  0  0  0  0  0  0  0  0  0  0
   -3.5054    0.5170    1.2733 H   0  0  0  0  0  0  0  0  0  0  0  0
   -1.1556    0.4795    1.7923 H   0  0  0  0  0  0  0  0  0  0  0  0
   -1.5911   -1.1018    1.1417 H   0  0  0  0  0  0  0  0  0  0  0  0
   -0.5933   -0.5024   -1.0470 H   0  0  0  0  0  0  0  0  0  0  0  0
   -0.2561    1.1401   -0.4651 H   0  0  0  0  0  0  0  0  0  0  0  0
    3.4077    0.1330    1.3782 H   0  0  0  0  0  0  0  0  0  0  0  0
    4.0229   -0.6155   -0.1015 H   0  0  0  0  0  0  0  0  0  0  0  0
    2.9362   -1.5239    0.9969 H   0  0  0  0  0  0  0  0  0  0  0  0
  1  2  1  0  0  0  0
  2  3  1  0  0  0  0
  3  4  1  0  0  0  0
  4  5  1  0  0  0  0
  5  6  1  0  0  0  0
  6  7  2  0  0  0  0
  6  8  1  0  0  0  0
  1  9  1  0  0  0  0
  1 10  1  0  0  0  0
  1 11  1  0  0  0  0
  2 12  1  0  0  0  0
  2 13  1  0  0  0  0
  3 14  1  0  0  0  0
  3 15  1  0  0  0  0
  4 16  1  0  0  0  0
  4 17  1  0  0  0  0
  8 18  1  0  0  0  0
  8 19  1  0  0  0  0
  8 20  1  0  0  0  0
M  END
