 xtb: 6.7.1 (edcfbbe)
          04112516113D

 17 16  0     0  0            999 V2000
   -2.5692   -1.0688    0.5105 C   0  0  0  0  0  0  0  0  0  0  0  0
   -2.7141    0.4263    0.2406 C   0  0  0  0  0  0  0  0  0  0  0  0
   -1.6765    0.9626   -0.7585 C   0  0  0  0  0  0  0  0  0  0  0  0
   -0.5302    1.7405   -0.1106 C   0  0  0  0  0  0  0  0  0  0  0  0
    0.3386    0.9199    0.8214 C   0  0  0  0  0  0  0  0  0  0  0  0
    1.2940   -0.5197   -0.1361 Br  0  0  0  0  0  0  0  0  0  0  0  0
   -1.5813   -1.3174    0.8897 H   0  0  0  0  0  0  0  0  0  0  0  0
   -2.7257   -1.6341   -0.4056 H   0  0  0  0  0  0  0  0  0  0  0  0
   -3.3051   -1.3945    1.2422 H   0  0  0  0  0  0  0  0  0  0  0  0
   -3.7161    0.6020   -0.1542 H   0  0  0  0  0  0  0  0  0  0  0  0
   -2.6388    0.9774    1.1805 H   0  0  0  0  0  0  0  0  0  0  0  0
   -1.2652    0.1318   -1.3357 H   0  0  0  0  0  0  0  0  0  0  0  0
   -2.1653    1.6349   -1.4650 H   0  0  0  0  0  0  0  0  0  0  0  0
    0.0950    2.1705   -0.8968 H   0  0  0  0  0  0  0  0  0  0  0  0
   -0.9399    2.5650    0.4787 H   0  0  0  0  0  0  0  0  0  0  0  0
   -0.2409    0.4217    1.5950 H   0  0  0  0  0  0  0  0  0  0  0  0
    1.1207    1.5260    1.2752 H   0  0  0  0  0  0  0  0  0  0  0  0
  1  2  1  0  0  0  0
  2  3  1  0  0  0  0
  3  4  1  0  0  0  0
  4  5  1  0  0  0  0
  5  6  1  0  0  0  0
  1  7  1  0  0  0  0
  1  8  1  0  0  0  0
  1  9  1  0  0  0  0
  2 10  1  0  0  0  0
  2 11  1  0  0  0  0
  3 12  1  0  0  0  0
  3 13  1  0  0  0  0
  4 14  1  0  0  0  0
  4 15  1  0  0  0  0
  5 16  1  0  0  0  0
  5 17  1  0  0  0  0
M  END
