 xtb: 6.7.1 (edcfbbe)
          04112516213D

 19 18  0     0  0            999 V2000
   -1.8592   -1.1659   -0.5589 C   0  0  0  0  0  0  0  0  0  0  0  0
   -1.9605    0.2629   -0.0332 C   0  0  0  0  0  0  0  0  0  0  0  0
   -0.8586    0.6071    0.9807 C   0  0  0  0  0  0  0  0  0  0  0  0
    0.2819    1.4455    0.4009 C   0  0  0  0  0  0  0  0  0  0  0  0
    1.0745    0.7378   -0.7046 C   0  0  0  0  0  0  0  0  0  0  0  0
    1.6813   -0.4905   -0.2343 C   0  0  0  0  0  0  0  0  0  0  0  0
    2.1739   -1.5042    0.1694 C   0  0  0  0  0  0  0  0  0  0  0  0
   -2.6211   -1.3480   -1.3139 H   0  0  0  0  0  0  0  0  0  0  0  0
   -2.0065   -1.8754    0.2525 H   0  0  0  0  0  0  0  0  0  0  0  0
   -0.8836   -1.3583   -0.9973 H   0  0  0  0  0  0  0  0  0  0  0  0
   -1.9208    0.9644   -0.8693 H   0  0  0  0  0  0  0  0  0  0  0  0
   -2.9377    0.3837    0.4390 H   0  0  0  0  0  0  0  0  0  0  0  0
   -0.4458   -0.3155    1.3935 H   0  0  0  0  0  0  0  0  0  0  0  0
   -1.2924    1.1711    1.8093 H   0  0  0  0  0  0  0  0  0  0  0  0
    0.9669    1.7061    1.2116 H   0  0  0  0  0  0  0  0  0  0  0  0
   -0.1245    2.3747   -0.0055 H   0  0  0  0  0  0  0  0  0  0  0  0
    1.8669    1.4022   -1.0610 H   0  0  0  0  0  0  0  0  0  0  0  0
    0.4200    0.5108   -1.5491 H   0  0  0  0  0  0  0  0  0  0  0  0
    2.6102   -2.3929    0.5151 H   0  0  0  0  0  0  0  0  0  0  0  0
  1  2  1  0  0  0  0
  2  3  1  0  0  0  0
  3  4  1  0  0  0  0
  4  5  1  0  0  0  0
  5  6  1  0  0  0  0
  6  7  3  0  0  0  0
  1  8  1  0  0  0  0
  1  9  1  0  0  0  0
  1 10  1  0  0  0  0
  2 11  1  0  0  0  0
  2 12  1  0  0  0  0
  3 13  1  0  0  0  0
  3 14  1  0  0  0  0
  4 15  1  0  0  0  0
  4 16  1  0  0  0  0
  5 17  1  0  0  0  0
  5 18  1  0  0  0  0
  7 19  1  0  0  0  0
M  END
