 xtb: 6.7.1 (edcfbbe)
          04112516263D

 20 19  0     0  0            999 V2000
   -3.4778    0.4323   -0.0227 C   0  0  0  0  0  0  0  0  0  0  0  0
   -2.6136   -0.7327    0.4454 C   0  0  0  0  0  0  0  0  0  0  0  0
   -1.1999   -0.7073   -0.1357 C   0  0  0  0  0  0  0  0  0  0  0  0
   -0.3738    0.4841    0.3730 C   0  0  0  0  0  0  0  0  0  0  0  0
    1.0138    0.3899   -0.1993 C   0  0  0  0  0  0  0  0  0  0  0  0
    1.3425    0.8044   -1.2920 O   0  0  0  0  0  0  0  0  0  0  0  0
    1.8353   -0.2440    0.6282 O   0  0  0  0  0  0  0  0  0  0  0  0
    3.1898   -0.4762    0.2285 C   0  0  0  0  0  0  0  0  0  0  0  0
   -4.4967    0.3091    0.3353 H   0  0  0  0  0  0  0  0  0  0  0  0
   -3.0998    1.3784    0.3547 H   0  0  0  0  0  0  0  0  0  0  0  0
   -3.4987    0.4772   -1.1092 H   0  0  0  0  0  0  0  0  0  0  0  0
   -2.5551   -0.7292    1.5351 H   0  0  0  0  0  0  0  0  0  0  0  0
   -3.0865   -1.6682    0.1404 H   0  0  0  0  0  0  0  0  0  0  0  0
   -1.2501   -0.6628   -1.2257 H   0  0  0  0  0  0  0  0  0  0  0  0
   -0.6859   -1.6304    0.1411 H   0  0  0  0  0  0  0  0  0  0  0  0
   -0.3154    0.4565    1.4601 H   0  0  0  0  0  0  0  0  0  0  0  0
   -0.8220    1.4178    0.0375 H   0  0  0  0  0  0  0  0  0  0  0  0
    3.3685   -1.5483    0.2812 H   0  0  0  0  0  0  0  0  0  0  0  0
    3.8385    0.0508    0.9257 H   0  0  0  0  0  0  0  0  0  0  0  0
    3.3435   -0.1097   -0.7870 H   0  0  0  0  0  0  0  0  0  0  0  0
  1  2  1  0  0  0  0
  2  3  1  0  0  0  0
  3  4  1  0  0  0  0
  4  5  1  0  0  0  0
  5  6  2  0  0  0  0
  5  7  1  0  0  0  0
  7  8  1  0  0  0  0
  1  9  1  0  0  0  0
  1 10  1  0  0  0  0
  1 11  1  0  0  0  0
  2 12  1  0  0  0  0
  2 13  1  0  0  0  0
  3 14  1  0  0  0  0
  3 15  1  0  0  0  0
  4 16  1  0  0  0  0
  4 17  1  0  0  0  0
  8 18  1  0  0  0  0
  8 19  1  0  0  0  0
  8 20  1  0  0  0  0
M  END
