 xtb: 6.7.1 (edcfbbe)
          04112517153D

 20 19  0     0  0            999 V2000
   -3.1233   -1.1097    0.1118 C   0  0  0  0  0  0  0  0  0  0  0  0
   -1.9303   -0.2427    0.4960 C   0  0  0  0  0  0  0  0  0  0  0  0
   -1.3638    0.5006   -0.7120 C   0  0  0  0  0  0  0  0  0  0  0  0
   -0.1640    1.3777   -0.3352 C   0  0  0  0  0  0  0  0  0  0  0  0
    0.9888    0.5441    0.1592 C   0  0  0  0  0  0  0  0  0  0  0  0
    1.4849    0.6242    1.2643 O   0  0  0  0  0  0  0  0  0  0  0  0
    1.4164   -0.3083   -0.7653 O   0  0  0  0  0  0  0  0  0  0  0  0
    2.5038   -1.1683   -0.4199 C   0  0  0  0  0  0  0  0  0  0  0  0
   -3.9164   -0.4969   -0.3097 H   0  0  0  0  0  0  0  0  0  0  0  0
   -2.8320   -1.8515   -0.6280 H   0  0  0  0  0  0  0  0  0  0  0  0
   -3.5143   -1.6278    0.9835 H   0  0  0  0  0  0  0  0  0  0  0  0
   -2.2340    0.4810    1.2556 H   0  0  0  0  0  0  0  0  0  0  0  0
   -1.1496   -0.8680    0.9374 H   0  0  0  0  0  0  0  0  0  0  0  0
   -2.1399    1.1365   -1.1400 H   0  0  0  0  0  0  0  0  0  0  0  0
   -1.0535   -0.2183   -1.4718 H   0  0  0  0  0  0  0  0  0  0  0  0
   -0.4333    2.0832    0.4507 H   0  0  0  0  0  0  0  0  0  0  0  0
    0.1735    1.9255   -1.2158 H   0  0  0  0  0  0  0  0  0  0  0  0
    2.6309   -1.8352   -1.2668 H   0  0  0  0  0  0  0  0  0  0  0  0
    2.2675   -1.7252    0.4878 H   0  0  0  0  0  0  0  0  0  0  0  0
    3.4047   -0.5782   -0.2479 H   0  0  0  0  0  0  0  0  0  0  0  0
  1  2  1  0  0  0  0
  2  3  1  0  0  0  0
  3  4  1  0  0  0  0
  4  5  1  0  0  0  0
  5  6  2  0  0  0  0
  5  7  1  0  0  0  0
  7  8  1  0  0  0  0
  1  9  1  0  0  0  0
  1 10  1  0  0  0  0
  1 11  1  0  0  0  0
  2 12  1  0  0  0  0
  2 13  1  0  0  0  0
  3 14  1  0  0  0  0
  3 15  1  0  0  0  0
  4 16  1  0  0  0  0
  4 17  1  0  0  0  0
  8 18  1  0  0  0  0
  8 19  1  0  0  0  0
  8 20  1  0  0  0  0
M  END
