 xtb: 6.7.1 (edcfbbe)
          04112514233D

 23 22  0     0  0            999 V2000
    1.2962    0.9378   -1.2207 C   0  0  0  0  0  0  0  0  0  0  0  0
    2.1288   -0.0647   -0.4243 C   0  0  0  0  0  0  0  0  0  0  0  0
    2.7191    0.6013    0.8175 C   0  0  0  0  0  0  0  0  0  0  0  0
    1.3355   -1.3317   -0.0694 C   0  0  0  0  0  0  0  0  0  0  0  0
    0.0568   -1.1125    0.7357 C   0  0  0  0  0  0  0  0  0  0  0  0
   -1.0371   -0.7999   -0.1407 O   0  0  0  0  0  0  0  0  0  0  0  0
   -1.7990    0.2539    0.1135 C   0  0  0  0  0  0  0  0  0  0  0  0
   -1.6323    0.9984    1.0596 O   0  0  0  0  0  0  0  0  0  0  0  0
   -2.8850    0.4018   -0.9104 C   0  0  0  0  0  0  0  0  0  0  0  0
    1.9286    1.7419   -1.5894 H   0  0  0  0  0  0  0  0  0  0  0  0
    0.5237    1.3834   -0.5969 H   0  0  0  0  0  0  0  0  0  0  0  0
    0.8213    0.4545   -2.0714 H   0  0  0  0  0  0  0  0  0  0  0  0
    2.9613   -0.3912   -1.0583 H   0  0  0  0  0  0  0  0  0  0  0  0
    3.3720    1.4205    0.5264 H   0  0  0  0  0  0  0  0  0  0  0  0
    3.2988   -0.1118    1.3982 H   0  0  0  0  0  0  0  0  0  0  0  0
    1.9353    1.0094    1.4517 H   0  0  0  0  0  0  0  0  0  0  0  0
    1.9826   -1.9913    0.5096 H   0  0  0  0  0  0  0  0  0  0  0  0
    1.0579   -1.8515   -0.9881 H   0  0  0  0  0  0  0  0  0  0  0  0
   -0.2229   -2.0351    1.2518 H   0  0  0  0  0  0  0  0  0  0  0  0
    0.1598   -0.3103    1.4704 H   0  0  0  0  0  0  0  0  0  0  0  0
   -2.4492    0.3848   -1.9050 H   0  0  0  0  0  0  0  0  0  0  0  0
   -3.4212    1.3297   -0.7427 H   0  0  0  0  0  0  0  0  0  0  0  0
   -3.5659   -0.4413   -0.8245 H   0  0  0  0  0  0  0  0  0  0  0  0
  1  2  1  0  0  0  0
  2  3  1  0  0  0  0
  2  4  1  0  0  0  0
  4  5  1  0  0  0  0
  5  6  1  0  0  0  0
  6  7  1  0  0  0  0
  7  8  2  0  0  0  0
  7  9  1  0  0  0  0
  1 10  1  0  0  0  0
  1 11  1  0  0  0  0
  1 12  1  0  0  0  0
  2 13  1  0  0  0  0
  3 14  1  0  0  0  0
  3 15  1  0  0  0  0
  3 16  1  0  0  0  0
  4 17  1  0  0  0  0
  4 18  1  0  0  0  0
  5 19  1  0  0  0  0
  5 20  1  0  0  0  0
  9 21  1  0  0  0  0
  9 22  1  0  0  0  0
  9 23  1  0  0  0  0
M  END
