 xtb: 6.7.1 (edcfbbe)
          04112516203D

 17 16  0     0  0            999 V2000
   -1.8235   -0.9784   -0.4508 C   0  0  0  0  0  0  0  0  0  0  0  0
   -2.0789    0.4664   -0.0393 C   0  0  0  0  0  0  0  0  0  0  0  0
   -0.9236    1.0784    0.7528 C   0  0  0  0  0  0  0  0  0  0  0  0
    0.3826    1.1344   -0.0435 C   0  0  0  0  0  0  0  0  0  0  0  0
    1.1566   -0.1545    0.0189 C   0  0  0  0  0  0  0  0  0  0  0  0
    1.2459   -0.8692    0.9943 O   0  0  0  0  0  0  0  0  0  0  0  0
    1.7865   -0.4238   -1.1174 O   0  0  0  0  0  0  0  0  0  0  0  0
   -1.0113   -1.0394   -1.1715 H   0  0  0  0  0  0  0  0  0  0  0  0
   -1.5561   -1.5800    0.4158 H   0  0  0  0  0  0  0  0  0  0  0  0
   -2.7129   -1.4055   -0.9076 H   0  0  0  0  0  0  0  0  0  0  0  0
   -2.9770    0.5062    0.5802 H   0  0  0  0  0  0  0  0  0  0  0  0
   -2.2638    1.0687   -0.9313 H   0  0  0  0  0  0  0  0  0  0  0  0
   -1.2022    2.0898    1.0501 H   0  0  0  0  0  0  0  0  0  0  0  0
   -0.7485    0.4935    1.6585 H   0  0  0  0  0  0  0  0  0  0  0  0
    1.0387    1.8934    0.3898 H   0  0  0  0  0  0  0  0  0  0  0  0
    0.2082    1.3916   -1.0878 H   0  0  0  0  0  0  0  0  0  0  0  0
    2.3318   -1.2324   -1.0646 H   0  0  0  0  0  0  0  0  0  0  0  0
  1  2  1  0  0  0  0
  2  3  1  0  0  0  0
  3  4  1  0  0  0  0
  4  5  1  0  0  0  0
  5  6  2  0  0  0  0
  5  7  1  0  0  0  0
  1  8  1  0  0  0  0
  1  9  1  0  0  0  0
  1 10  1  0  0  0  0
  2 11  1  0  0  0  0
  2 12  1  0  0  0  0
  3 13  1  0  0  0  0
  3 14  1  0  0  0  0
  4 15  1  0  0  0  0
  4 16  1  0  0  0  0
  7 17  1  0  0  0  0
M  END
