 xtb: 6.7.1 (edcfbbe)
          04112516053D

 26 26  0     0  0            999 V2000
   -2.9379   -1.3231   -1.1908 C   0  0  0  0  0  0  0  0  0  0  0  0
   -3.3882   -0.1983   -0.2673 C   0  0  0  0  0  0  0  0  0  0  0  0
   -2.4796   -0.0576    0.9622 C   0  0  0  0  0  0  0  0  0  0  0  0
   -1.0859    0.3477    0.5741 C   0  0  0  0  0  0  0  0  0  0  0  0
   -0.7992    1.6622    0.2484 C   0  0  0  0  0  0  0  0  0  0  0  0
    0.4777    2.0275   -0.1465 C   0  0  0  0  0  0  0  0  0  0  0  0
    1.4891    1.0872   -0.2247 C   0  0  0  0  0  0  0  0  0  0  0  0
    1.2118   -0.2518    0.1048 C   0  0  0  0  0  0  0  0  0  0  0  0
   -0.0694   -0.5999    0.4987 C   0  0  0  0  0  0  0  0  0  0  0  0
    2.2679   -1.1178    0.0026 O   0  0  0  0  0  0  0  0  0  0  0  0
    2.0512   -2.4772    0.3195 C   0  0  0  0  0  0  0  0  0  0  0  0
    2.7613    1.3997   -0.6088 O   0  0  0  0  0  0  0  0  0  0  0  0
   -3.6020   -1.3994   -2.0483 H   0  0  0  0  0  0  0  0  0  0  0  0
   -1.9289   -1.1364   -1.5517 H   0  0  0  0  0  0  0  0  0  0  0  0
   -2.9462   -2.2749   -0.6643 H   0  0  0  0  0  0  0  0  0  0  0  0
   -4.4082   -0.3929    0.0698 H   0  0  0  0  0  0  0  0  0  0  0  0
   -3.3894    0.7437   -0.8189 H   0  0  0  0  0  0  0  0  0  0  0  0
   -2.4545   -1.0080    1.4975 H   0  0  0  0  0  0  0  0  0  0  0  0
   -2.9039    0.6981    1.6261 H   0  0  0  0  0  0  0  0  0  0  0  0
   -1.5729    2.4126    0.3038 H   0  0  0  0  0  0  0  0  0  0  0  0
    0.6904    3.0567   -0.3961 H   0  0  0  0  0  0  0  0  0  0  0  0
   -0.2949   -1.6227    0.7547 H   0  0  0  0  0  0  0  0  0  0  0  0
    3.0127   -2.9618    0.1660 H   0  0  0  0  0  0  0  0  0  0  0  0
    1.3044   -2.9240   -0.3428 H   0  0  0  0  0  0  0  0  0  0  0  0
    1.7416   -2.5961    1.3615 H   0  0  0  0  0  0  0  0  0  0  0  0
    2.8233    2.3476   -0.8020 H   0  0  0  0  0  0  0  0  0  0  0  0
  1  2  1  0  0  0  0
  2  3  1  0  0  0  0
  3  4  1  0  0  0  0
  4  5  4  0  0  0  0
  5  6  4  0  0  0  0
  6  7  4  0  0  0  0
  7  8  4  0  0  0  0
  4  9  4  0  0  0  0
  8  9  4  0  0  0  0
  8 10  1  0  0  0  0
 10 11  1  0  0  0  0
  7 12  1  0  0  0  0
  1 13  1  0  0  0  0
  1 14  1  0  0  0  0
  1 15  1  0  0  0  0
  2 16  1  0  0  0  0
  2 17  1  0  0  0  0
  3 18  1  0  0  0  0
  3 19  1  0  0  0  0
  5 20  1  0  0  0  0
  6 21  1  0  0  0  0
  9 22  1  0  0  0  0
 11 23  1  0  0  0  0
 11 24  1  0  0  0  0
 11 25  1  0  0  0  0
 12 26  1  0  0  0  0
M  END
