 xtb: 6.7.1 (edcfbbe)
          04112516053D

 23 23  0     0  0            999 V2000
   -3.9869   -0.7750    0.0478 C   0  0  0  0  0  0  0  0  0  0  0  0
   -3.0946    0.3248   -0.0249 O   0  0  0  0  0  0  0  0  0  0  0  0
   -1.7574    0.0729   -0.0220 C   0  0  0  0  0  0  0  0  0  0  0  0
   -1.1665   -1.1688    0.0472 C   0  0  0  0  0  0  0  0  0  0  0  0
    0.2274   -1.2973    0.0338 C   0  0  0  0  0  0  0  0  0  0  0  0
    1.0322   -0.1515   -0.0484 C   0  0  0  0  0  0  0  0  0  0  0  0
    0.4602    1.1191   -0.0808 C   0  0  0  0  0  0  0  0  0  0  0  0
   -0.9461    1.2222   -0.0759 C   0  0  0  0  0  0  0  0  0  0  0  0
   -1.4892    2.4465   -0.1215 O   0  0  0  0  0  0  0  0  0  0  0  0
    1.0942    2.3167   -0.1687 O   0  0  0  0  0  0  0  0  0  0  0  0
    2.3226    2.5509    0.5091 C   0  0  0  0  0  0  0  0  0  0  0  0
    2.7513   -0.3512   -0.1671 Cl  0  0  0  0  0  0  0  0  0  0  0  0
    0.7809   -2.6396    0.1016 C   0  0  0  0  0  0  0  0  0  0  0  0
    0.1191   -3.6598    0.1539 O   0  0  0  0  0  0  0  0  0  0  0  0
   -3.8430   -1.3343    0.9742 H   0  0  0  0  0  0  0  0  0  0  0  0
   -3.8596   -1.4390   -0.8093 H   0  0  0  0  0  0  0  0  0  0  0  0
   -4.9810   -0.3353    0.0312 H   0  0  0  0  0  0  0  0  0  0  0  0
   -1.7376   -2.0810    0.1068 H   0  0  0  0  0  0  0  0  0  0  0  0
   -2.4618    2.3751   -0.1207 H   0  0  0  0  0  0  0  0  0  0  0  0
    2.3734    1.9975    1.4470 H   0  0  0  0  0  0  0  0  0  0  0  0
    2.3291    3.6205    0.7128 H   0  0  0  0  0  0  0  0  0  0  0  0
    3.1771    2.2960   -0.1200 H   0  0  0  0  0  0  0  0  0  0  0  0
    1.8806   -2.7021    0.1089 H   0  0  0  0  0  0  0  0  0  0  0  0
  1  2  1  0  0  0  0
  2  3  1  0  0  0  0
  3  4  4  0  0  0  0
  4  5  4  0  0  0  0
  5  6  4  0  0  0  0
  6  7  4  0  0  0  0
  3  8  4  0  0  0  0
  7  8  4  0  0  0  0
  8  9  1  0  0  0  0
  7 10  1  0  0  0  0
 10 11  1  0  0  0  0
  6 12  1  0  0  0  0
  5 13  1  0  0  0  0
 13 14  2  0  0  0  0
  1 15  1  0  0  0  0
  1 16  1  0  0  0  0
  1 17  1  0  0  0  0
  4 18  1  0  0  0  0
  9 19  1  0  0  0  0
 11 20  1  0  0  0  0
 11 21  1  0  0  0  0
 11 22  1  0  0  0  0
 13 23  1  0  0  0  0
M  END
