 xtb: 6.7.1 (edcfbbe)
          04112516133D

 33 34  0     0  0            999 V2000
   -3.1410    2.0038   -1.0284 C   0  0  0  0  0  0  0  0  0  0  0  0
   -2.6720    0.9337   -0.0893 C   0  0  0  0  0  0  0  0  0  0  0  0
   -3.3392    0.7338    1.1116 C   0  0  0  0  0  0  0  0  0  0  0  0
   -2.9353   -0.2554    1.9904 C   0  0  0  0  0  0  0  0  0  0  0  0
   -1.8238   -1.0169    1.6954 C   0  0  0  0  0  0  0  0  0  0  0  0
   -1.1212   -0.8089    0.5103 C   0  0  0  0  0  0  0  0  0  0  0  0
   -1.5739    0.1341   -0.4218 C   0  0  0  0  0  0  0  0  0  0  0  0
   -0.9357    0.2741   -1.7719 C   0  0  0  0  0  0  0  0  0  0  0  0
   -0.0058   -1.6180    0.2630 N   0  0  0  0  0  0  0  0  0  0  0  0
    1.2187   -1.2511   -0.2191 C   0  0  0  0  0  0  0  0  0  0  0  0
    2.0365   -2.2431   -0.7837 C   0  0  0  0  0  0  0  0  0  0  0  0
    3.2289   -1.9286   -1.3927 C   0  0  0  0  0  0  0  0  0  0  0  0
    3.6497   -0.6055   -1.4764 C   0  0  0  0  0  0  0  0  0  0  0  0
    2.8894    0.3775   -0.8828 C   0  0  0  0  0  0  0  0  0  0  0  0
    1.7020    0.0723   -0.2133 C   0  0  0  0  0  0  0  0  0  0  0  0
    1.1064    1.1746    0.5611 C   0  0  0  0  0  0  0  0  0  0  0  0
    1.0953    2.3386    0.1976 O   0  0  0  0  0  0  0  0  0  0  0  0
    0.6758    0.8197    1.7697 O   0  0  0  0  0  0  0  0  0  0  0  0
   -3.5555    1.5682   -1.9369 H   0  0  0  0  0  0  0  0  0  0  0  0
   -3.9108    2.6103   -0.5589 H   0  0  0  0  0  0  0  0  0  0  0  0
   -2.3111    2.6487   -1.3132 H   0  0  0  0  0  0  0  0  0  0  0  0
   -4.1906    1.3525    1.3540 H   0  0  0  0  0  0  0  0  0  0  0  0
   -3.4756   -0.4187    2.9103 H   0  0  0  0  0  0  0  0  0  0  0  0
   -1.4769   -1.7700    2.3863 H   0  0  0  0  0  0  0  0  0  0  0  0
   -0.3597   -0.6102   -2.0294 H   0  0  0  0  0  0  0  0  0  0  0  0
   -1.7001    0.4209   -2.5313 H   0  0  0  0  0  0  0  0  0  0  0  0
   -0.2661    1.1351   -1.8019 H   0  0  0  0  0  0  0  0  0  0  0  0
   -0.1035   -2.5884    0.5231 H   0  0  0  0  0  0  0  0  0  0  0  0
    1.7022   -3.2692   -0.7492 H   0  0  0  0  0  0  0  0  0  0  0  0
    3.8322   -2.7127   -1.8238 H   0  0  0  0  0  0  0  0  0  0  0  0
    4.5688   -0.3530   -1.9798 H   0  0  0  0  0  0  0  0  0  0  0  0
    3.2106    1.4090   -0.8905 H   0  0  0  0  0  0  0  0  0  0  0  0
    0.3888    1.5941    2.2878 H   0  0  0  0  0  0  0  0  0  0  0  0
  1  2  1  0  0  0  0
  2  3  4  0  0  0  0
  3  4  4  0  0  0  0
  4  5  4  0  0  0  0
  5  6  4  0  0  0  0
  2  7  4  0  0  0  0
  6  7  4  0  0  0  0
  7  8  1  0  0  0  0
  6  9  1  0  0  0  0
  9 10  1  0  0  0  0
 10 11  4  0  0  0  0
 11 12  4  0  0  0  0
 12 13  4  0  0  0  0
 13 14  4  0  0  0  0
 10 15  4  0  0  0  0
 14 15  4  0  0  0  0
 15 16  1  0  0  0  0
 16 17  2  0  0  0  0
 16 18  1  0  0  0  0
  1 19  1  0  0  0  0
  1 20  1  0  0  0  0
  1 21  1  0  0  0  0
  3 22  1  0  0  0  0
  4 23  1  0  0  0  0
  5 24  1  0  0  0  0
  8 25  1  0  0  0  0
  8 26  1  0  0  0  0
  8 27  1  0  0  0  0
  9 28  1  0  0  0  0
 11 29  1  0  0  0  0
 12 30  1  0  0  0  0
 13 31  1  0  0  0  0
 14 32  1  0  0  0  0
 18 33  1  0  0  0  0
M  END
