 xtb: 6.7.1 (edcfbbe)
          04112516013D

 20 19  0     0  0            999 V2000
   -3.1575   -0.4280   -0.7966 C   0  0  0  0  0  0  0  0  0  0  0  0
   -2.7077    0.5605    0.2736 C   0  0  0  0  0  0  0  0  0  0  0  0
   -1.1977    0.7949    0.2771 C   0  0  0  0  0  0  0  0  0  0  0  0
   -0.4105   -0.4553    0.6630 C   0  0  0  0  0  0  0  0  0  0  0  0
    0.9723   -0.1412    0.8802 O   0  0  0  0  0  0  0  0  0  0  0  0
    1.7917   -0.1286   -0.1660 C   0  0  0  0  0  0  0  0  0  0  0  0
    1.4398   -0.3988   -1.2961 O   0  0  0  0  0  0  0  0  0  0  0  0
    3.1850    0.2571    0.2301 C   0  0  0  0  0  0  0  0  0  0  0  0
   -2.7921   -0.1215   -1.7740 H   0  0  0  0  0  0  0  0  0  0  0  0
   -2.7840   -1.4269   -0.5888 H   0  0  0  0  0  0  0  0  0  0  0  0
   -4.2429   -0.4721   -0.8336 H   0  0  0  0  0  0  0  0  0  0  0  0
   -3.1979    1.5196    0.0982 H   0  0  0  0  0  0  0  0  0  0  0  0
   -3.0188    0.2014    1.2561 H   0  0  0  0  0  0  0  0  0  0  0  0
   -0.8710    1.1233   -0.7125 H   0  0  0  0  0  0  0  0  0  0  0  0
   -0.9544    1.5820    0.9940 H   0  0  0  0  0  0  0  0  0  0  0  0
   -0.7588   -0.8593    1.6146 H   0  0  0  0  0  0  0  0  0  0  0  0
   -0.4751   -1.2148   -0.1210 H   0  0  0  0  0  0  0  0  0  0  0  0
    3.2951    0.1923    1.3070 H   0  0  0  0  0  0  0  0  0  0  0  0
    3.3645    1.2797   -0.0946 H   0  0  0  0  0  0  0  0  0  0  0  0
    3.8969   -0.3870   -0.2774 H   0  0  0  0  0  0  0  0  0  0  0  0
  1  2  1  0  0  0  0
  2  3  1  0  0  0  0
  3  4  1  0  0  0  0
  4  5  1  0  0  0  0
  5  6  1  0  0  0  0
  6  7  2  0  0  0  0
  6  8  1  0  0  0  0
  1  9  1  0  0  0  0
  1 10  1  0  0  0  0
  1 11  1  0  0  0  0
  2 12  1  0  0  0  0
  2 13  1  0  0  0  0
  3 14  1  0  0  0  0
  3 15  1  0  0  0  0
  4 16  1  0  0  0  0
  4 17  1  0  0  0  0
  8 18  1  0  0  0  0
  8 19  1  0  0  0  0
  8 20  1  0  0  0  0
M  END
