 xtb: 6.7.1 (edcfbbe)
          04112514233D

 23 22  0     0  0            999 V2000
    3.0732   -0.7134    0.3685 C   0  0  0  0  0  0  0  0  0  0  0  0
    2.1439    0.4690    0.0992 C   0  0  0  0  0  0  0  0  0  0  0  0
    1.6971    0.4760   -1.3608 C   0  0  0  0  0  0  0  0  0  0  0  0
    0.9547    0.4962    1.0712 C   0  0  0  0  0  0  0  0  0  0  0  0
   -0.0031   -0.6916    0.9886 C   0  0  0  0  0  0  0  0  0  0  0  0
   -0.8131   -0.6695   -0.1948 O   0  0  0  0  0  0  0  0  0  0  0  0
   -1.9266    0.0515   -0.1852 C   0  0  0  0  0  0  0  0  0  0  0  0
   -2.3055    0.6900    0.7763 O   0  0  0  0  0  0  0  0  0  0  0  0
   -2.6601   -0.0468   -1.4898 C   0  0  0  0  0  0  0  0  0  0  0  0
    3.9768   -0.6175   -0.2280 H   0  0  0  0  0  0  0  0  0  0  0  0
    2.5960   -1.6530    0.1040 H   0  0  0  0  0  0  0  0  0  0  0  0
    3.3564   -0.7483    1.4175 H   0  0  0  0  0  0  0  0  0  0  0  0
    2.7090    1.3901    0.2854 H   0  0  0  0  0  0  0  0  0  0  0  0
    2.5608    0.5594   -2.0162 H   0  0  0  0  0  0  0  0  0  0  0  0
    1.0362    1.3184   -1.5549 H   0  0  0  0  0  0  0  0  0  0  0  0
    1.1670   -0.4410   -1.6037 H   0  0  0  0  0  0  0  0  0  0  0  0
    0.3743    1.4080    0.9086 H   0  0  0  0  0  0  0  0  0  0  0  0
    1.3388    0.5281    2.0921 H   0  0  0  0  0  0  0  0  0  0  0  0
    0.5317   -1.6395    0.9462 H   0  0  0  0  0  0  0  0  0  0  0  0
   -0.6693   -0.6765    1.8573 H   0  0  0  0  0  0  0  0  0  0  0  0
   -1.9722   -0.3151   -2.2843 H   0  0  0  0  0  0  0  0  0  0  0  0
   -3.1568    0.8953   -1.6998 H   0  0  0  0  0  0  0  0  0  0  0  0
   -3.4189   -0.8211   -1.3982 H   0  0  0  0  0  0  0  0  0  0  0  0
  1  2  1  0  0  0  0
  2  3  1  0  0  0  0
  2  4  1  0  0  0  0
  4  5  1  0  0  0  0
  5  6  1  0  0  0  0
  6  7  1  0  0  0  0
  7  8  2  0  0  0  0
  7  9  1  0  0  0  0
  1 10  1  0  0  0  0
  1 11  1  0  0  0  0
  1 12  1  0  0  0  0
  2 13  1  0  0  0  0
  3 14  1  0  0  0  0
  3 15  1  0  0  0  0
  3 16  1  0  0  0  0
  4 17  1  0  0  0  0
  4 18  1  0  0  0  0
  5 19  1  0  0  0  0
  5 20  1  0  0  0  0
  9 21  1  0  0  0  0
  9 22  1  0  0  0  0
  9 23  1  0  0  0  0
M  END
