 xtb: 6.7.1 (edcfbbe)
          04112516263D

 20 19  0     0  0            999 V2000
   -3.7182    0.1106    0.6846 C   0  0  0  0  0  0  0  0  0  0  0  0
   -2.6395   -0.5150   -0.1918 C   0  0  0  0  0  0  0  0  0  0  0  0
   -1.2651    0.0826    0.1008 C   0  0  0  0  0  0  0  0  0  0  0  0
   -0.1783   -0.5499   -0.7811 C   0  0  0  0  0  0  0  0  0  0  0  0
    1.1421    0.1049   -0.4823 C   0  0  0  0  0  0  0  0  0  0  0  0
    1.5363    1.1398   -0.9786 O   0  0  0  0  0  0  0  0  0  0  0  0
    1.8300   -0.5687    0.4325 O   0  0  0  0  0  0  0  0  0  0  0  0
    3.0883   -0.0292    0.8460 C   0  0  0  0  0  0  0  0  0  0  0  0
   -4.6886   -0.3247    0.4610 H   0  0  0  0  0  0  0  0  0  0  0  0
   -3.4997   -0.0567    1.7366 H   0  0  0  0  0  0  0  0  0  0  0  0
   -3.7740    1.1830    0.5128 H   0  0  0  0  0  0  0  0  0  0  0  0
   -2.6082   -1.5919   -0.0174 H   0  0  0  0  0  0  0  0  0  0  0  0
   -2.8860   -0.3531   -1.2427 H   0  0  0  0  0  0  0  0  0  0  0  0
   -1.0128   -0.0785    1.1510 H   0  0  0  0  0  0  0  0  0  0  0  0
   -1.2863    1.1597   -0.0798 H   0  0  0  0  0  0  0  0  0  0  0  0
   -0.4200   -0.3861   -1.8310 H   0  0  0  0  0  0  0  0  0  0  0  0
   -0.1037   -1.6160   -0.5719 H   0  0  0  0  0  0  0  0  0  0  0  0
    2.9394    0.9406    1.3219 H   0  0  0  0  0  0  0  0  0  0  0  0
    3.7411    0.0970   -0.0185 H   0  0  0  0  0  0  0  0  0  0  0  0
    3.5002   -0.7489    1.5460 H   0  0  0  0  0  0  0  0  0  0  0  0
  1  2  1  0  0  0  0
  2  3  1  0  0  0  0
  3  4  1  0  0  0  0
  4  5  1  0  0  0  0
  5  6  2  0  0  0  0
  5  7  1  0  0  0  0
  7  8  1  0  0  0  0
  1  9  1  0  0  0  0
  1 10  1  0  0  0  0
  1 11  1  0  0  0  0
  2 12  1  0  0  0  0
  2 13  1  0  0  0  0
  3 14  1  0  0  0  0
  3 15  1  0  0  0  0
  4 16  1  0  0  0  0
  4 17  1  0  0  0  0
  8 18  1  0  0  0  0
  8 19  1  0  0  0  0
  8 20  1  0  0  0  0
M  END
