 xtb: 6.7.1 (edcfbbe)
          04112516013D

 20 19  0     0  0            999 V2000
   -2.1300   -1.3052   -0.0955 C   0  0  0  0  0  0  0  0  0  0  0  0
   -2.5149    0.1655    0.0152 C   0  0  0  0  0  0  0  0  0  0  0  0
   -1.3569    1.1200   -0.2795 C   0  0  0  0  0  0  0  0  0  0  0  0
   -0.2506    1.1004    0.7742 C   0  0  0  0  0  0  0  0  0  0  0  0
    0.5400   -0.0951    0.7286 O   0  0  0  0  0  0  0  0  0  0  0  0
    1.5367   -0.1602   -0.1459 C   0  0  0  0  0  0  0  0  0  0  0  0
    1.8386    0.7513   -0.8893 O   0  0  0  0  0  0  0  0  0  0  0  0
    2.2261   -1.4910   -0.0954 C   0  0  0  0  0  0  0  0  0  0  0  0
   -3.0005   -1.9348    0.0719 H   0  0  0  0  0  0  0  0  0  0  0  0
   -1.7369   -1.5202   -1.0874 H   0  0  0  0  0  0  0  0  0  0  0  0
   -1.3716   -1.5617    0.6388 H   0  0  0  0  0  0  0  0  0  0  0  0
   -3.3175    0.3769   -0.6944 H   0  0  0  0  0  0  0  0  0  0  0  0
   -2.8960    0.3671    1.0181 H   0  0  0  0  0  0  0  0  0  0  0  0
   -0.9164    0.8867   -1.2517 H   0  0  0  0  0  0  0  0  0  0  0  0
   -1.7396    2.1405   -0.3237 H   0  0  0  0  0  0  0  0  0  0  0  0
    0.4162    1.9555    0.6235 H   0  0  0  0  0  0  0  0  0  0  0  0
   -0.6674    1.1200    1.7819 H   0  0  0  0  0  0  0  0  0  0  0  0
    1.7091   -2.1696   -0.7711 H   0  0  0  0  0  0  0  0  0  0  0  0
    2.1771   -1.8957    0.9099 H   0  0  0  0  0  0  0  0  0  0  0  0
    3.2534   -1.3832   -0.4281 H   0  0  0  0  0  0  0  0  0  0  0  0
  1  2  1  0  0  0  0
  2  3  1  0  0  0  0
  3  4  1  0  0  0  0
  4  5  1  0  0  0  0
  5  6  1  0  0  0  0
  6  7  2  0  0  0  0
  6  8  1  0  0  0  0
  1  9  1  0  0  0  0
  1 10  1  0  0  0  0
  1 11  1  0  0  0  0
  2 12  1  0  0  0  0
  2 13  1  0  0  0  0
  3 14  1  0  0  0  0
  3 15  1  0  0  0  0
  4 16  1  0  0  0  0
  4 17  1  0  0  0  0
  8 18  1  0  0  0  0
  8 19  1  0  0  0  0
  8 20  1  0  0  0  0
M  END
