 xtb: 6.7.1 (edcfbbe)
          04112516203D

 17 16  0     0  0            999 V2000
   -3.2656   -1.3083   -0.0062 C   0  0  0  0  0  0  0  0  0  0  0  0
   -3.3809    0.2121   -0.0321 C   0  0  0  0  0  0  0  0  0  0  0  0
   -2.2812    0.9529    0.7327 C   0  0  0  0  0  0  0  0  0  0  0  0
   -0.8967    0.9371    0.0710 C   0  0  0  0  0  0  0  0  0  0  0  0
   -0.0808   -0.2821    0.4553 C   0  0  0  0  0  0  0  0  0  0  0  0
    1.7458   -0.1708   -0.2924 Br  0  0  0  0  0  0  0  0  0  0  0  0
   -4.1785   -1.7555   -0.3925 H   0  0  0  0  0  0  0  0  0  0  0  0
   -3.1164   -1.6639    1.0109 H   0  0  0  0  0  0  0  0  0  0  0  0
   -2.4426   -1.6567   -0.6241 H   0  0  0  0  0  0  0  0  0  0  0  0
   -3.3943    0.5572   -1.0679 H   0  0  0  0  0  0  0  0  0  0  0  0
   -4.3370    0.4903    0.4167 H   0  0  0  0  0  0  0  0  0  0  0  0
   -2.5899    1.9961    0.8203 H   0  0  0  0  0  0  0  0  0  0  0  0
   -2.2063    0.5485    1.7442 H   0  0  0  0  0  0  0  0  0  0  0  0
   -1.0042    0.9836   -1.0146 H   0  0  0  0  0  0  0  0  0  0  0  0
   -0.3469    1.8273    0.3861 H   0  0  0  0  0  0  0  0  0  0  0  0
   -0.4909   -1.2096    0.0661 H   0  0  0  0  0  0  0  0  0  0  0  0
    0.0522   -0.3566    1.5332 H   0  0  0  0  0  0  0  0  0  0  0  0
  1  2  1  0  0  0  0
  2  3  1  0  0  0  0
  3  4  1  0  0  0  0
  4  5  1  0  0  0  0
  5  6  1  0  0  0  0
  1  7  1  0  0  0  0
  1  8  1  0  0  0  0
  1  9  1  0  0  0  0
  2 10  1  0  0  0  0
  2 11  1  0  0  0  0
  3 12  1  0  0  0  0
  3 13  1  0  0  0  0
  4 14  1  0  0  0  0
  4 15  1  0  0  0  0
  5 16  1  0  0  0  0
  5 17  1  0  0  0  0
M  END
