 xtb: 6.7.1 (edcfbbe)
          04112514203D

 23 22  0     0  0            999 V2000
    3.0671    0.1781   -0.6651 C   0  0  0  0  0  0  0  0  0  0  0  0
    1.9125    0.2956    0.3235 C   0  0  0  0  0  0  0  0  0  0  0  0
    0.7812   -0.6763   -0.0099 C   0  0  0  0  0  0  0  0  0  0  0  0
   -0.4057   -0.5669    0.9607 C   0  0  0  0  0  0  0  0  0  0  0  0
   -1.6832    0.0554    0.3760 C   0  0  0  0  0  0  0  0  0  0  0  0
   -1.4511    1.4746   -0.1371 C   0  0  0  0  0  0  0  0  0  0  0  0
   -2.2910   -0.8230   -0.7166 C   0  0  0  0  0  0  0  0  0  0  0  0
    3.4625   -0.8355   -0.6696 H   0  0  0  0  0  0  0  0  0  0  0  0
    2.7335    0.4185   -1.6723 H   0  0  0  0  0  0  0  0  0  0  0  0
    3.8714    0.8593   -0.3981 H   0  0  0  0  0  0  0  0  0  0  0  0
    1.5308    1.3181    0.3145 H   0  0  0  0  0  0  0  0  0  0  0  0
    2.2790    0.0865    1.3314 H   0  0  0  0  0  0  0  0  0  0  0  0
    0.4511   -0.4914   -1.0325 H   0  0  0  0  0  0  0  0  0  0  0  0
    1.1821   -1.6917    0.0153 H   0  0  0  0  0  0  0  0  0  0  0  0
   -0.6639   -1.5608    1.3325 H   0  0  0  0  0  0  0  0  0  0  0  0
   -0.1012    0.0275    1.8252 H   0  0  0  0  0  0  0  0  0  0  0  0
   -2.4085    0.1110    1.1973 H   0  0  0  0  0  0  0  0  0  0  0  0
   -0.7580    1.4780   -0.9741 H   0  0  0  0  0  0  0  0  0  0  0  0
   -2.3897    1.9102   -0.4730 H   0  0  0  0  0  0  0  0  0  0  0  0
   -1.0451    2.1034    0.6520 H   0  0  0  0  0  0  0  0  0  0  0  0
   -2.4669   -1.8288   -0.3421 H   0  0  0  0  0  0  0  0  0  0  0  0
   -1.6325   -0.8895   -1.5788 H   0  0  0  0  0  0  0  0  0  0  0  0
   -3.2406   -0.4088   -1.0478 H   0  0  0  0  0  0  0  0  0  0  0  0
  1  2  1  0  0  0  0
  2  3  1  0  0  0  0
  3  4  1  0  0  0  0
  4  5  1  0  0  0  0
  5  6  1  0  0  0  0
  5  7  1  0  0  0  0
  1  8  1  0  0  0  0
  1  9  1  0  0  0  0
  1 10  1  0  0  0  0
  2 11  1  0  0  0  0
  2 12  1  0  0  0  0
  3 13  1  0  0  0  0
  3 14  1  0  0  0  0
  4 15  1  0  0  0  0
  4 16  1  0  0  0  0
  5 17  1  0  0  0  0
  6 18  1  0  0  0  0
  6 19  1  0  0  0  0
  6 20  1  0  0  0  0
  7 21  1  0  0  0  0
  7 22  1  0  0  0  0
  7 23  1  0  0  0  0
M  END
