 xtb: 6.7.1 (edcfbbe)
          04112518233D

 26 25  0     0  0            999 V2000
    3.1532   -0.6376   -1.2859 C   0  0  0  0  0  0  0  0  0  0  0  0
    1.8881   -0.5666   -0.4412 C   0  0  0  0  0  0  0  0  0  0  0  0
    1.7693   -1.8010    0.4538 C   0  0  0  0  0  0  0  0  0  0  0  0
    0.6800   -0.3791   -1.2970 C   0  0  0  0  0  0  0  0  0  0  0  0
   -0.5435   -0.2860   -0.9932 N   0  0  0  0  0  0  0  0  0  0  0  0
   -0.8739   -0.3819    0.3740 O   0  0  0  0  0  0  0  0  0  0  0  0
   -2.2064   -0.2340    0.6610 C   0  0  0  0  0  0  0  0  0  0  0  0
   -2.5286   -0.3304    1.8309 O   0  0  0  0  0  0  0  0  0  0  0  0
   -3.0081    0.0002   -0.3697 N   0  0  0  0  0  0  0  0  0  0  0  0
   -4.4368    0.1675   -0.2347 C   0  0  0  0  0  0  0  0  0  0  0  0
    1.9762    0.8893    0.7300 S   0  0  0  0  0  0  0  0  0  0  0  0
    2.0261    2.3064   -0.4128 C   0  0  0  0  0  0  0  0  0  0  0  0
    3.1476   -1.5529   -1.8737 H   0  0  0  0  0  0  0  0  0  0  0  0
    3.2255    0.2091   -1.9632 H   0  0  0  0  0  0  0  0  0  0  0  0
    4.0264   -0.6438   -0.6388 H   0  0  0  0  0  0  0  0  0  0  0  0
    1.6726   -2.6940   -0.1597 H   0  0  0  0  0  0  0  0  0  0  0  0
    0.9034   -1.7239    1.1071 H   0  0  0  0  0  0  0  0  0  0  0  0
    2.6593   -1.8866    1.0718 H   0  0  0  0  0  0  0  0  0  0  0  0
    0.8408   -0.2767   -2.3636 H   0  0  0  0  0  0  0  0  0  0  0  0
   -2.5891    0.0397   -1.2904 H   0  0  0  0  0  0  0  0  0  0  0  0
   -4.6874    0.0874    0.8212 H   0  0  0  0  0  0  0  0  0  0  0  0
   -4.9583   -0.6089   -0.7926 H   0  0  0  0  0  0  0  0  0  0  0  0
   -4.7334    1.1471   -0.6064 H   0  0  0  0  0  0  0  0  0  0  0  0
    2.0423    3.1838    0.2252 H   0  0  0  0  0  0  0  0  0  0  0  0
    1.1345    2.3141   -1.0313 H   0  0  0  0  0  0  0  0  0  0  0  0
    2.9283    2.2706   -1.0134 H   0  0  0  0  0  0  0  0  0  0  0  0
  1  2  1  0  0  0  0
  2  3  1  0  0  0  0
  2  4  1  0  0  0  0
  4  5  2  0  0  0  0
  5  6  1  0  0  0  0
  6  7  1  0  0  0  0
  7  8  2  0  0  0  0
  7  9  4  0  0  0  0
  9 10  1  0  0  0  0
  2 11  1  0  0  0  0
 11 12  1  0  0  0  0
  1 13  1  0  0  0  0
  1 14  1  0  0  0  0
  1 15  1  0  0  0  0
  3 16  1  0  0  0  0
  3 17  1  0  0  0  0
  3 18  1  0  0  0  0
  4 19  1  0  0  0  0
  9 20  1  0  0  0  0
 10 21  1  0  0  0  0
 10 22  1  0  0  0  0
 10 23  1  0  0  0  0
 12 24  1  0  0  0  0
 12 25  1  0  0  0  0
 12 26  1  0  0  0  0
M  END
