 xtb: 6.7.1 (edcfbbe)
          04112516123D

 19 18  0     0  0            999 V2000
   -3.6287    0.3036   -0.1368 C   0  0  0  0  0  0  0  0  0  0  0  0
   -2.3162   -0.3081    0.3391 C   0  0  0  0  0  0  0  0  0  0  0  0
   -1.1075    0.3820   -0.2892 C   0  0  0  0  0  0  0  0  0  0  0  0
    0.2091   -0.2276    0.1850 C   0  0  0  0  0  0  0  0  0  0  0  0
    1.4141    0.4740   -0.4515 C   0  0  0  0  0  0  0  0  0  0  0  0
    2.6619   -0.1051    0.0016 C   0  0  0  0  0  0  0  0  0  0  0  0
    3.6793   -0.6008    0.3915 C   0  0  0  0  0  0  0  0  0  0  0  0
   -3.6746    1.3582    0.1255 H   0  0  0  0  0  0  0  0  0  0  0  0
   -4.4748   -0.2018    0.3223 H   0  0  0  0  0  0  0  0  0  0  0  0
   -3.7204    0.2154   -1.2171 H   0  0  0  0  0  0  0  0  0  0  0  0
   -2.2516   -0.2284    1.4267 H   0  0  0  0  0  0  0  0  0  0  0  0
   -2.2972   -1.3704    0.0846 H   0  0  0  0  0  0  0  0  0  0  0  0
   -1.1284    1.4443   -0.0337 H   0  0  0  0  0  0  0  0  0  0  0  0
   -1.1739    0.3013   -1.3770 H   0  0  0  0  0  0  0  0  0  0  0  0
    0.2351   -1.2896   -0.0704 H   0  0  0  0  0  0  0  0  0  0  0  0
    0.2798   -0.1481    1.2724 H   0  0  0  0  0  0  0  0  0  0  0  0
    1.4030    1.5361   -0.1916 H   0  0  0  0  0  0  0  0  0  0  0  0
    1.3594    0.3882   -1.5402 H   0  0  0  0  0  0  0  0  0  0  0  0
    4.5771   -1.0267    0.7263 H   0  0  0  0  0  0  0  0  0  0  0  0
  1  2  1  0  0  0  0
  2  3  1  0  0  0  0
  3  4  1  0  0  0  0
  4  5  1  0  0  0  0
  5  6  1  0  0  0  0
  6  7  3  0  0  0  0
  1  8  1  0  0  0  0
  1  9  1  0  0  0  0
  1 10  1  0  0  0  0
  2 11  1  0  0  0  0
  2 12  1  0  0  0  0
  3 13  1  0  0  0  0
  3 14  1  0  0  0  0
  4 15  1  0  0  0  0
  4 16  1  0  0  0  0
  5 17  1  0  0  0  0
  5 18  1  0  0  0  0
  7 19  1  0  0  0  0
M  END
