 xtb: 6.7.1 (edcfbbe)
          04112516123D

 19 18  0     0  0            999 V2000
   -2.2969   -0.5249    0.8904 C   0  0  0  0  0  0  0  0  0  0  0  0
   -2.1811    0.1028   -0.4939 C   0  0  0  0  0  0  0  0  0  0  0  0
   -0.7435    0.2298   -1.0032 C   0  0  0  0  0  0  0  0  0  0  0  0
    0.1360    1.1812   -0.1810 C   0  0  0  0  0  0  0  0  0  0  0  0
    1.0099    0.4587    0.8531 C   0  0  0  0  0  0  0  0  0  0  0  0
    1.9707   -0.4180    0.2149 C   0  0  0  0  0  0  0  0  0  0  0  0
    2.7551   -1.1386   -0.3318 C   0  0  0  0  0  0  0  0  0  0  0  0
   -1.8733    0.1255    1.6510 H   0  0  0  0  0  0  0  0  0  0  0  0
   -1.7812   -1.4826    0.9182 H   0  0  0  0  0  0  0  0  0  0  0  0
   -3.3427   -0.6930    1.1385 H   0  0  0  0  0  0  0  0  0  0  0  0
   -2.7398   -0.5105   -1.2052 H   0  0  0  0  0  0  0  0  0  0  0  0
   -2.6446    1.0924   -0.4809 H   0  0  0  0  0  0  0  0  0  0  0  0
   -0.7893    0.5912   -2.0331 H   0  0  0  0  0  0  0  0  0  0  0  0
   -0.2768   -0.7575   -1.0290 H   0  0  0  0  0  0  0  0  0  0  0  0
   -0.4928    1.9102    0.3337 H   0  0  0  0  0  0  0  0  0  0  0  0
    0.7970    1.7326   -0.8535 H   0  0  0  0  0  0  0  0  0  0  0  0
    0.3916   -0.1362    1.5278 H   0  0  0  0  0  0  0  0  0  0  0  0
    1.5551    1.1967    1.4482 H   0  0  0  0  0  0  0  0  0  0  0  0
    3.4481   -1.7706   -0.8008 H   0  0  0  0  0  0  0  0  0  0  0  0
  1  2  1  0  0  0  0
  2  3  1  0  0  0  0
  3  4  1  0  0  0  0
  4  5  1  0  0  0  0
  5  6  1  0  0  0  0
  6  7  3  0  0  0  0
  1  8  1  0  0  0  0
  1  9  1  0  0  0  0
  1 10  1  0  0  0  0
  2 11  1  0  0  0  0
  2 12  1  0  0  0  0
  3 13  1  0  0  0  0
  3 14  1  0  0  0  0
  4 15  1  0  0  0  0
  4 16  1  0  0  0  0
  5 17  1  0  0  0  0
  5 18  1  0  0  0  0
  7 19  1  0  0  0  0
M  END
