 xtb: 6.7.1 (edcfbbe)
          04112516113D

 17 16  0     0  0            999 V2000
   -4.4256   -0.8690    0.2394 C   0  0  0  0  0  0  0  0  0  0  0  0
   -2.9511   -0.8071   -0.1431 C   0  0  0  0  0  0  0  0  0  0  0  0
   -2.3388    0.5442    0.2234 C   0  0  0  0  0  0  0  0  0  0  0  0
   -0.8994    0.7186   -0.2670 C   0  0  0  0  0  0  0  0  0  0  0  0
    0.0575   -0.2022    0.4653 C   0  0  0  0  0  0  0  0  0  0  0  0
    1.9211    0.1206   -0.0978 Br  0  0  0  0  0  0  0  0  0  0  0  0
   -4.8469   -1.8363   -0.0217 H   0  0  0  0  0  0  0  0  0  0  0  0
   -4.9876   -0.0973   -0.2814 H   0  0  0  0  0  0  0  0  0  0  0  0
   -4.5478   -0.7183    1.3095 H   0  0  0  0  0  0  0  0  0  0  0  0
   -2.4185   -1.6104    0.3690 H   0  0  0  0  0  0  0  0  0  0  0  0
   -2.8494   -0.9694   -1.2183 H   0  0  0  0  0  0  0  0  0  0  0  0
   -2.9445    1.3343   -0.2243 H   0  0  0  0  0  0  0  0  0  0  0  0
   -2.3719    0.6765    1.3070 H   0  0  0  0  0  0  0  0  0  0  0  0
   -0.8496    0.5195   -1.3399 H   0  0  0  0  0  0  0  0  0  0  0  0
   -0.5910    1.7539   -0.1046 H   0  0  0  0  0  0  0  0  0  0  0  0
   -0.1278   -1.2517    0.2488 H   0  0  0  0  0  0  0  0  0  0  0  0
    0.0425   -0.0315    1.5404 H   0  0  0  0  0  0  0  0  0  0  0  0
  1  2  1  0  0  0  0
  2  3  1  0  0  0  0
  3  4  1  0  0  0  0
  4  5  1  0  0  0  0
  5  6  1  0  0  0  0
  1  7  1  0  0  0  0
  1  8  1  0  0  0  0
  1  9  1  0  0  0  0
  2 10  1  0  0  0  0
  2 11  1  0  0  0  0
  3 12  1  0  0  0  0
  3 13  1  0  0  0  0
  4 14  1  0  0  0  0
  4 15  1  0  0  0  0
  5 16  1  0  0  0  0
  5 17  1  0  0  0  0
M  END
