 xtb: 6.7.1 (edcfbbe)
          04112514233D

 23 22  0     0  0            999 V2000
    1.3019    0.8773   -1.2840 C   0  0  0  0  0  0  0  0  0  0  0  0
    2.1189   -0.0657   -0.4030 C   0  0  0  0  0  0  0  0  0  0  0  0
    2.6285    0.6724    0.8338 C   0  0  0  0  0  0  0  0  0  0  0  0
    1.3451   -1.3405   -0.0321 C   0  0  0  0  0  0  0  0  0  0  0  0
    0.0506   -1.1358    0.7508 C   0  0  0  0  0  0  0  0  0  0  0  0
   -1.0313   -0.8099   -0.1353 O   0  0  0  0  0  0  0  0  0  0  0  0
   -1.7760    0.2588    0.1083 C   0  0  0  0  0  0  0  0  0  0  0  0
   -1.6028    1.0050    1.0518 O   0  0  0  0  0  0  0  0  0  0  0  0
   -2.8514    0.4219   -0.9245 C   0  0  0  0  0  0  0  0  0  0  0  0
    0.4979    1.3402   -0.7153 H   0  0  0  0  0  0  0  0  0  0  0  0
    0.8698    0.3411   -2.1258 H   0  0  0  0  0  0  0  0  0  0  0  0
    1.9352    1.6729   -1.6698 H   0  0  0  0  0  0  0  0  0  0  0  0
    2.9901   -0.3959   -0.9805 H   0  0  0  0  0  0  0  0  0  0  0  0
    1.8039    1.0989    1.4011 H   0  0  0  0  0  0  0  0  0  0  0  0
    3.2842    1.4875    0.5375 H   0  0  0  0  0  0  0  0  0  0  0  0
    3.1852    0.0004    1.4821 H   0  0  0  0  0  0  0  0  0  0  0  0
    1.9959   -1.9724    0.5733 H   0  0  0  0  0  0  0  0  0  0  0  0
    1.0959   -1.8864   -0.9437 H   0  0  0  0  0  0  0  0  0  0  0  0
   -0.2355   -2.0688    1.2442 H   0  0  0  0  0  0  0  0  0  0  0  0
    0.1405   -0.3473    1.5017 H   0  0  0  0  0  0  0  0  0  0  0  0
   -2.4026    0.4341   -1.9135 H   0  0  0  0  0  0  0  0  0  0  0  0
   -3.3963    1.3419   -0.7416 H   0  0  0  0  0  0  0  0  0  0  0  0
   -3.5255   -0.4288   -0.8692 H   0  0  0  0  0  0  0  0  0  0  0  0
  1  2  1  0  0  0  0
  2  3  1  0  0  0  0
  2  4  1  0  0  0  0
  4  5  1  0  0  0  0
  5  6  1  0  0  0  0
  6  7  1  0  0  0  0
  7  8  2  0  0  0  0
  7  9  1  0  0  0  0
  1 10  1  0  0  0  0
  1 11  1  0  0  0  0
  1 12  1  0  0  0  0
  2 13  1  0  0  0  0
  3 14  1  0  0  0  0
  3 15  1  0  0  0  0
  3 16  1  0  0  0  0
  4 17  1  0  0  0  0
  4 18  1  0  0  0  0
  5 19  1  0  0  0  0
  5 20  1  0  0  0  0
  9 21  1  0  0  0  0
  9 22  1  0  0  0  0
  9 23  1  0  0  0  0
M  END
