 xtb: 6.7.1 (edcfbbe)
          04112516113D

 17 16  0     0  0            999 V2000
   -3.5214   -0.9392    0.3433 C   0  0  0  0  0  0  0  0  0  0  0  0
   -2.5102   -0.0511   -0.3709 C   0  0  0  0  0  0  0  0  0  0  0  0
   -1.6553    0.7388    0.6192 C   0  0  0  0  0  0  0  0  0  0  0  0
   -0.6200    1.6327   -0.0840 C   0  0  0  0  0  0  0  0  0  0  0  0
    0.8054    1.3473    0.3456 C   0  0  0  0  0  0  0  0  0  0  0  0
    1.3640   -0.4790   -0.1576 Br  0  0  0  0  0  0  0  0  0  0  0  0
   -4.1192   -1.4911   -0.3774 H   0  0  0  0  0  0  0  0  0  0  0  0
   -4.1891   -0.3396    0.9581 H   0  0  0  0  0  0  0  0  0  0  0  0
   -3.0121   -1.6542    0.9856 H   0  0  0  0  0  0  0  0  0  0  0  0
   -1.8596   -0.6728   -0.9903 H   0  0  0  0  0  0  0  0  0  0  0  0
   -3.0373    0.6438   -1.0285 H   0  0  0  0  0  0  0  0  0  0  0  0
   -2.3087    1.3460    1.2474 H   0  0  0  0  0  0  0  0  0  0  0  0
   -1.1461    0.0289    1.2750 H   0  0  0  0  0  0  0  0  0  0  0  0
   -0.6986    1.5054   -1.1657 H   0  0  0  0  0  0  0  0  0  0  0  0
   -0.8125    2.6843    0.1370 H   0  0  0  0  0  0  0  0  0  0  0  0
    0.9249    1.3987    1.4263 H   0  0  0  0  0  0  0  0  0  0  0  0
    1.5184    2.0092   -0.1428 H   0  0  0  0  0  0  0  0  0  0  0  0
  1  2  1  0  0  0  0
  2  3  1  0  0  0  0
  3  4  1  0  0  0  0
  4  5  1  0  0  0  0
  5  6  1  0  0  0  0
  1  7  1  0  0  0  0
  1  8  1  0  0  0  0
  1  9  1  0  0  0  0
  2 10  1  0  0  0  0
  2 11  1  0  0  0  0
  3 12  1  0  0  0  0
  3 13  1  0  0  0  0
  4 14  1  0  0  0  0
  4 15  1  0  0  0  0
  5 16  1  0  0  0  0
  5 17  1  0  0  0  0
M  END
