 xtb: 6.7.1 (edcfbbe)
          04112516133D

 33 34  0     0  0            999 V2000
   -4.4644    1.4750   -0.3375 C   0  0  0  0  0  0  0  0  0  0  0  0
   -3.2387    0.7550    0.1430 C   0  0  0  0  0  0  0  0  0  0  0  0
   -3.1618    0.3476    1.4693 C   0  0  0  0  0  0  0  0  0  0  0  0
   -2.0514   -0.3280    1.9423 C   0  0  0  0  0  0  0  0  0  0  0  0
   -1.0068   -0.6208    1.0889 C   0  0  0  0  0  0  0  0  0  0  0  0
   -1.0622   -0.2121   -0.2407 C   0  0  0  0  0  0  0  0  0  0  0  0
   -2.1745    0.4918   -0.7202 C   0  0  0  0  0  0  0  0  0  0  0  0
   -2.1874    0.9441   -2.1511 C   0  0  0  0  0  0  0  0  0  0  0  0
   -0.0444   -0.5488   -1.1395 N   0  0  0  0  0  0  0  0  0  0  0  0
    1.2572   -0.8436   -0.8378 C   0  0  0  0  0  0  0  0  0  0  0  0
    1.9248   -1.8097   -1.6049 C   0  0  0  0  0  0  0  0  0  0  0  0
    3.2137   -2.1942   -1.3130 C   0  0  0  0  0  0  0  0  0  0  0  0
    3.8858   -1.6376   -0.2305 C   0  0  0  0  0  0  0  0  0  0  0  0
    3.2669   -0.6527    0.5074 C   0  0  0  0  0  0  0  0  0  0  0  0
    1.9777   -0.2141    0.1971 C   0  0  0  0  0  0  0  0  0  0  0  0
    1.5079    0.9731    0.9305 C   0  0  0  0  0  0  0  0  0  0  0  0
    1.8513    1.2468    2.0691 O   0  0  0  0  0  0  0  0  0  0  0  0
    0.7487    1.8004    0.2180 O   0  0  0  0  0  0  0  0  0  0  0  0
   -4.8851    0.9790   -1.2096 H   0  0  0  0  0  0  0  0  0  0  0  0
   -5.2179    1.4988    0.4450 H   0  0  0  0  0  0  0  0  0  0  0  0
   -4.2256    2.5018   -0.6113 H   0  0  0  0  0  0  0  0  0  0  0  0
   -3.9816    0.5597    2.1398 H   0  0  0  0  0  0  0  0  0  0  0  0
   -2.0041   -0.6429    2.9742 H   0  0  0  0  0  0  0  0  0  0  0  0
   -0.1511   -1.1743    1.4484 H   0  0  0  0  0  0  0  0  0  0  0  0
   -2.5333    0.1428   -2.8047 H   0  0  0  0  0  0  0  0  0  0  0  0
   -2.8476    1.7940   -2.2850 H   0  0  0  0  0  0  0  0  0  0  0  0
   -1.1848    1.2352   -2.4561 H   0  0  0  0  0  0  0  0  0  0  0  0
   -0.3654   -0.8910   -2.0346 H   0  0  0  0  0  0  0  0  0  0  0  0
    1.4008   -2.2675   -2.4306 H   0  0  0  0  0  0  0  0  0  0  0  0
    3.6977   -2.9455   -1.9178 H   0  0  0  0  0  0  0  0  0  0  0  0
    4.8846   -1.9572    0.0186 H   0  0  0  0  0  0  0  0  0  0  0  0
    3.7748   -0.1693    1.3292 H   0  0  0  0  0  0  0  0  0  0  0  0
    0.5478    2.6153    0.7148 H   0  0  0  0  0  0  0  0  0  0  0  0
  1  2  1  0  0  0  0
  2  3  4  0  0  0  0
  3  4  4  0  0  0  0
  4  5  4  0  0  0  0
  5  6  4  0  0  0  0
  2  7  4  0  0  0  0
  6  7  4  0  0  0  0
  7  8  1  0  0  0  0
  6  9  1  0  0  0  0
  9 10  1  0  0  0  0
 10 11  4  0  0  0  0
 11 12  4  0  0  0  0
 12 13  4  0  0  0  0
 13 14  4  0  0  0  0
 10 15  4  0  0  0  0
 14 15  4  0  0  0  0
 15 16  1  0  0  0  0
 16 17  2  0  0  0  0
 16 18  1  0  0  0  0
  1 19  1  0  0  0  0
  1 20  1  0  0  0  0
  1 21  1  0  0  0  0
  3 22  1  0  0  0  0
  4 23  1  0  0  0  0
  5 24  1  0  0  0  0
  8 25  1  0  0  0  0
  8 26  1  0  0  0  0
  8 27  1  0  0  0  0
  9 28  1  0  0  0  0
 11 29  1  0  0  0  0
 12 30  1  0  0  0  0
 13 31  1  0  0  0  0
 14 32  1  0  0  0  0
 18 33  1  0  0  0  0
M  END
