 xtb: 6.7.1 (edcfbbe)
          04112516053D

 23 23  0     0  0            999 V2000
   -4.1627   -0.5145    0.0489 C   0  0  0  0  0  0  0  0  0  0  0  0
   -3.1961    0.5210   -0.0174 O   0  0  0  0  0  0  0  0  0  0  0  0
   -1.8870    0.1810   -0.0129 C   0  0  0  0  0  0  0  0  0  0  0  0
   -1.3850   -1.1025    0.0546 C   0  0  0  0  0  0  0  0  0  0  0  0
   -0.0049   -1.3471    0.0397 C   0  0  0  0  0  0  0  0  0  0  0  0
    0.8929   -0.2675   -0.0371 C   0  0  0  0  0  0  0  0  0  0  0  0
    0.4118    1.0384   -0.0670 C   0  0  0  0  0  0  0  0  0  0  0  0
   -0.9811    1.2581   -0.0702 C   0  0  0  0  0  0  0  0  0  0  0  0
   -1.4679    2.5032   -0.1292 O   0  0  0  0  0  0  0  0  0  0  0  0
    1.1160    2.2052   -0.1369 O   0  0  0  0  0  0  0  0  0  0  0  0
    2.4106    2.3386    0.4356 C   0  0  0  0  0  0  0  0  0  0  0  0
    2.5905   -0.6123   -0.1411 Cl  0  0  0  0  0  0  0  0  0  0  0  0
    0.4155   -2.7357    0.0973 C   0  0  0  0  0  0  0  0  0  0  0  0
    1.5501   -3.1768    0.1009 O   0  0  0  0  0  0  0  0  0  0  0  0
   -4.0662   -1.0832    0.9764 H   0  0  0  0  0  0  0  0  0  0  0  0
   -4.0813   -1.1833   -0.8109 H   0  0  0  0  0  0  0  0  0  0  0  0
   -5.1226   -0.0047    0.0284 H   0  0  0  0  0  0  0  0  0  0  0  0
   -2.0474   -1.9496    0.1120 H   0  0  0  0  0  0  0  0  0  0  0  0
   -0.7282    3.1399   -0.1553 H   0  0  0  0  0  0  0  0  0  0  0  0
    2.5341    3.4079    0.5980 H   0  0  0  0  0  0  0  0  0  0  0  0
    3.1834    1.9804   -0.2439 H   0  0  0  0  0  0  0  0  0  0  0  0
    2.4802    1.8085    1.3849 H   0  0  0  0  0  0  0  0  0  0  0  0
   -0.4345   -3.4403    0.1443 H   0  0  0  0  0  0  0  0  0  0  0  0
  1  2  1  0  0  0  0
  2  3  1  0  0  0  0
  3  4  4  0  0  0  0
  4  5  4  0  0  0  0
  5  6  4  0  0  0  0
  6  7  4  0  0  0  0
  3  8  4  0  0  0  0
  7  8  4  0  0  0  0
  8  9  1  0  0  0  0
  7 10  1  0  0  0  0
 10 11  1  0  0  0  0
  6 12  1  0  0  0  0
  5 13  1  0  0  0  0
 13 14  2  0  0  0  0
  1 15  1  0  0  0  0
  1 16  1  0  0  0  0
  1 17  1  0  0  0  0
  4 18  1  0  0  0  0
  9 19  1  0  0  0  0
 11 20  1  0  0  0  0
 11 21  1  0  0  0  0
 11 22  1  0  0  0  0
 13 23  1  0  0  0  0
M  END
