 xtb: 6.7.1 (edcfbbe)
          04112516153D

 26 25  0     0  0            999 V2000
    0.6746   -0.9183   -1.5050 C   0  0  0  0  0  0  0  0  0  0  0  0
    1.5325   -0.4757   -0.3258 C   0  0  0  0  0  0  0  0  0  0  0  0
    2.9393   -1.0455   -0.4500 C   0  0  0  0  0  0  0  0  0  0  0  0
    0.9800   -0.7284    1.0359 C   0  0  0  0  0  0  0  0  0  0  0  0
   -0.1525   -1.0321    1.5048 N   0  0  0  0  0  0  0  0  0  0  0  0
   -1.2344   -1.2894    0.6154 O   0  0  0  0  0  0  0  0  0  0  0  0
   -1.9967   -0.2131    0.2697 C   0  0  0  0  0  0  0  0  0  0  0  0
   -1.6944    0.9378    0.5200 O   0  0  0  0  0  0  0  0  0  0  0  0
   -3.0796   -0.6283   -0.3903 N   0  0  0  0  0  0  0  0  0  0  0  0
   -4.0730    0.2801   -0.9182 C   0  0  0  0  0  0  0  0  0  0  0  0
    1.5404    1.3998   -0.3897 S   0  0  0  0  0  0  0  0  0  0  0  0
    2.9616    1.8805    0.6407 C   0  0  0  0  0  0  0  0  0  0  0  0
    0.3942   -1.9638   -1.3948 H   0  0  0  0  0  0  0  0  0  0  0  0
   -0.2278   -0.3144   -1.5798 H   0  0  0  0  0  0  0  0  0  0  0  0
    1.2388   -0.7921   -2.4255 H   0  0  0  0  0  0  0  0  0  0  0  0
    3.5451   -0.8179    0.4223 H   0  0  0  0  0  0  0  0  0  0  0  0
    3.4219   -0.6427   -1.3370 H   0  0  0  0  0  0  0  0  0  0  0  0
    2.8733   -2.1270   -0.5496 H   0  0  0  0  0  0  0  0  0  0  0  0
    1.6965   -0.6010    1.8410 H   0  0  0  0  0  0  0  0  0  0  0  0
   -3.2128   -1.6211   -0.5081 H   0  0  0  0  0  0  0  0  0  0  0  0
   -5.0410    0.0884   -0.4574 H   0  0  0  0  0  0  0  0  0  0  0  0
   -4.1512    0.1629   -1.9983 H   0  0  0  0  0  0  0  0  0  0  0  0
   -3.7548    1.2942   -0.6847 H   0  0  0  0  0  0  0  0  0  0  0  0
    3.8811    1.5008    0.2107 H   0  0  0  0  0  0  0  0  0  0  0  0
    2.8202    1.5412    1.6610 H   0  0  0  0  0  0  0  0  0  0  0  0
    2.9607    2.9654    0.6140 H   0  0  0  0  0  0  0  0  0  0  0  0
  1  2  1  0  0  0  0
  2  3  1  0  0  0  0
  2  4  1  0  0  0  0
  4  5  2  0  0  0  0
  5  6  1  0  0  0  0
  6  7  1  0  0  0  0
  7  8  2  0  0  0  0
  7  9  4  0  0  0  0
  9 10  1  0  0  0  0
  2 11  1  0  0  0  0
 11 12  1  0  0  0  0
  1 13  1  0  0  0  0
  1 14  1  0  0  0  0
  1 15  1  0  0  0  0
  3 16  1  0  0  0  0
  3 17  1  0  0  0  0
  3 18  1  0  0  0  0
  4 19  1  0  0  0  0
  9 20  1  0  0  0  0
 10 21  1  0  0  0  0
 10 22  1  0  0  0  0
 10 23  1  0  0  0  0
 12 24  1  0  0  0  0
 12 25  1  0  0  0  0
 12 26  1  0  0  0  0
M  END
