 xtb: 6.7.1 (edcfbbe)
          04112516293D

 20 19  0     0  0            999 V2000
   -2.3556   -1.1289   -0.0251 C   0  0  0  0  0  0  0  0  0  0  0  0
   -1.9134    0.1112   -0.7945 C   0  0  0  0  0  0  0  0  0  0  0  0
   -1.5105    1.2751    0.1129 C   0  0  0  0  0  0  0  0  0  0  0  0
   -0.2653    1.0003    0.9531 C   0  0  0  0  0  0  0  0  0  0  0  0
    0.8880    0.8465    0.1135 O   0  0  0  0  0  0  0  0  0  0  0  0
    1.4461   -0.3510   -0.0137 C   0  0  0  0  0  0  0  0  0  0  0  0
    1.0690   -1.3413    0.5792 O   0  0  0  0  0  0  0  0  0  0  0  0
    2.5940   -0.3158   -0.9788 C   0  0  0  0  0  0  0  0  0  0  0  0
   -2.7461   -1.8756   -0.7121 H   0  0  0  0  0  0  0  0  0  0  0  0
   -1.5199   -1.5752    0.5097 H   0  0  0  0  0  0  0  0  0  0  0  0
   -3.1348   -0.8772    0.6905 H   0  0  0  0  0  0  0  0  0  0  0  0
   -1.0753   -0.1490   -1.4459 H   0  0  0  0  0  0  0  0  0  0  0  0
   -2.7331    0.4469   -1.4324 H   0  0  0  0  0  0  0  0  0  0  0  0
   -1.3178    2.1557   -0.5020 H   0  0  0  0  0  0  0  0  0  0  0  0
   -2.3273    1.5034    0.7982 H   0  0  0  0  0  0  0  0  0  0  0  0
   -0.0492    1.8542    1.5988 H   0  0  0  0  0  0  0  0  0  0  0  0
   -0.3817    0.0990    1.5601 H   0  0  0  0  0  0  0  0  0  0  0  0
    2.1957   -0.3298   -1.9911 H   0  0  0  0  0  0  0  0  0  0  0  0
    3.2230   -1.1873   -0.8309 H   0  0  0  0  0  0  0  0  0  0  0  0
    3.1572    0.6024   -0.8456 H   0  0  0  0  0  0  0  0  0  0  0  0
  1  2  1  0  0  0  0
  2  3  1  0  0  0  0
  3  4  1  0  0  0  0
  4  5  1  0  0  0  0
  5  6  1  0  0  0  0
  6  7  2  0  0  0  0
  6  8  1  0  0  0  0
  1  9  1  0  0  0  0
  1 10  1  0  0  0  0
  1 11  1  0  0  0  0
  2 12  1  0  0  0  0
  2 13  1  0  0  0  0
  3 14  1  0  0  0  0
  3 15  1  0  0  0  0
  4 16  1  0  0  0  0
  4 17  1  0  0  0  0
  8 18  1  0  0  0  0
  8 19  1  0  0  0  0
  8 20  1  0  0  0  0
M  END
