 xtb: 6.7.1 (edcfbbe)
          04112516093D

 19 18  0     0  0            999 V2000
    2.3753   -0.7750   -0.1330 C   0  0  0  0  0  0  0  0  0  0  0  0
    1.6163    0.4428   -0.6481 C   0  0  0  0  0  0  0  0  0  0  0  0
    0.8241    1.1653    0.4426 C   0  0  0  0  0  0  0  0  0  0  0  0
   -0.2522    0.2874    1.0988 C   0  0  0  0  0  0  0  0  0  0  0  0
   -1.2098   -0.2762    0.0811 C   0  0  0  0  0  0  0  0  0  0  0  0
   -1.2499   -1.4654   -0.1755 O   0  0  0  0  0  0  0  0  0  0  0  0
   -2.1206    0.7103   -0.5923 C   0  0  0  0  0  0  0  0  0  0  0  0
    1.6857   -1.5640    0.1575 H   0  0  0  0  0  0  0  0  0  0  0  0
    3.0249   -1.1694   -0.9107 H   0  0  0  0  0  0  0  0  0  0  0  0
    2.9881   -0.5097    0.7256 H   0  0  0  0  0  0  0  0  0  0  0  0
    0.9377    0.1272   -1.4444 H   0  0  0  0  0  0  0  0  0  0  0  0
    2.3273    1.1508   -1.0796 H   0  0  0  0  0  0  0  0  0  0  0  0
    0.3579    2.0500    0.0068 H   0  0  0  0  0  0  0  0  0  0  0  0
    1.5112    1.4982    1.2224 H   0  0  0  0  0  0  0  0  0  0  0  0
    0.2168   -0.5375    1.6356 H   0  0  0  0  0  0  0  0  0  0  0  0
   -0.8186    0.8945    1.8065 H   0  0  0  0  0  0  0  0  0  0  0  0
   -2.0119    0.6240   -1.6714 H   0  0  0  0  0  0  0  0  0  0  0  0
   -3.1492    0.4446   -0.3555 H   0  0  0  0  0  0  0  0  0  0  0  0
   -1.9242    1.7279   -0.2764 H   0  0  0  0  0  0  0  0  0  0  0  0
  1  2  1  0  0  0  0
  2  3  1  0  0  0  0
  3  4  1  0  0  0  0
  4  5  1  0  0  0  0
  5  6  2  0  0  0  0
  5  7  1  0  0  0  0
  1  8  1  0  0  0  0
  1  9  1  0  0  0  0
  1 10  1  0  0  0  0
  2 11  1  0  0  0  0
  2 12  1  0  0  0  0
  3 13  1  0  0  0  0
  3 14  1  0  0  0  0
  4 15  1  0  0  0  0
  4 16  1  0  0  0  0
  7 17  1  0  0  0  0
  7 18  1  0  0  0  0
  7 19  1  0  0  0  0
M  END
