 xtb: 6.7.1 (edcfbbe)
          04112514233D

 23 22  0     0  0            999 V2000
    2.5298    1.4719    0.4242 C   0  0  0  0  0  0  0  0  0  0  0  0
    2.3709    0.1074   -0.2428 C   0  0  0  0  0  0  0  0  0  0  0  0
    3.3526   -0.8920    0.3676 C   0  0  0  0  0  0  0  0  0  0  0  0
    0.9426   -0.4289   -0.1012 C   0  0  0  0  0  0  0  0  0  0  0  0
   -0.0934    0.4229   -0.8304 C   0  0  0  0  0  0  0  0  0  0  0  0
   -1.3586   -0.2515   -0.8836 O   0  0  0  0  0  0  0  0  0  0  0  0
   -2.1943   -0.1135    0.1404 C   0  0  0  0  0  0  0  0  0  0  0  0
   -1.9588    0.5794    1.1090 O   0  0  0  0  0  0  0  0  0  0  0  0
   -3.4458   -0.9143   -0.0584 C   0  0  0  0  0  0  0  0  0  0  0  0
    1.9224    2.2245   -0.0705 H   0  0  0  0  0  0  0  0  0  0  0  0
    3.5680    1.7914    0.3804 H   0  0  0  0  0  0  0  0  0  0  0  0
    2.2305    1.4189    1.4686 H   0  0  0  0  0  0  0  0  0  0  0  0
    2.5967    0.2102   -1.3097 H   0  0  0  0  0  0  0  0  0  0  0  0
    4.3741   -0.5394    0.2514 H   0  0  0  0  0  0  0  0  0  0  0  0
    3.2666   -1.8616   -0.1163 H   0  0  0  0  0  0  0  0  0  0  0  0
    3.1512   -1.0176    1.4290 H   0  0  0  0  0  0  0  0  0  0  0  0
    0.6726   -0.4824    0.9563 H   0  0  0  0  0  0  0  0  0  0  0  0
    0.8952   -1.4392   -0.5140 H   0  0  0  0  0  0  0  0  0  0  0  0
   -0.2346    1.3847   -0.3301 H   0  0  0  0  0  0  0  0  0  0  0  0
    0.1873    0.5740   -1.8737 H   0  0  0  0  0  0  0  0  0  0  0  0
   -3.5242   -1.2278   -1.0935 H   0  0  0  0  0  0  0  0  0  0  0  0
   -4.3057   -0.3215    0.2391 H   0  0  0  0  0  0  0  0  0  0  0  0
   -3.4004   -1.7895    0.5861 H   0  0  0  0  0  0  0  0  0  0  0  0
  1  2  1  0  0  0  0
  2  3  1  0  0  0  0
  2  4  1  0  0  0  0
  4  5  1  0  0  0  0
  5  6  1  0  0  0  0
  6  7  1  0  0  0  0
  7  8  2  0  0  0  0
  7  9  1  0  0  0  0
  1 10  1  0  0  0  0
  1 11  1  0  0  0  0
  1 12  1  0  0  0  0
  2 13  1  0  0  0  0
  3 14  1  0  0  0  0
  3 15  1  0  0  0  0
  3 16  1  0  0  0  0
  4 17  1  0  0  0  0
  4 18  1  0  0  0  0
  5 19  1  0  0  0  0
  5 20  1  0  0  0  0
  9 21  1  0  0  0  0
  9 22  1  0  0  0  0
  9 23  1  0  0  0  0
M  END
