 xtb: 6.7.1 (edcfbbe)
          04112516013D

 20 19  0     0  0            999 V2000
   -2.8621   -0.4839    1.0235 C   0  0  0  0  0  0  0  0  0  0  0  0
   -2.3167   -0.5313   -0.3995 C   0  0  0  0  0  0  0  0  0  0  0  0
   -1.6392    0.7723   -0.8268 C   0  0  0  0  0  0  0  0  0  0  0  0
   -0.3103    1.0147   -0.1251 C   0  0  0  0  0  0  0  0  0  0  0  0
    0.6188    0.0050   -0.5468 O   0  0  0  0  0  0  0  0  0  0  0  0
    1.7514   -0.1213    0.1300 C   0  0  0  0  0  0  0  0  0  0  0  0
    2.0337    0.5714    1.0879 O   0  0  0  0  0  0  0  0  0  0  0  0
    2.6209   -1.2049   -0.4333 C   0  0  0  0  0  0  0  0  0  0  0  0
   -3.3790   -1.4111    1.2578 H   0  0  0  0  0  0  0  0  0  0  0  0
   -2.0628   -0.3527    1.7487 H   0  0  0  0  0  0  0  0  0  0  0  0
   -3.5646    0.3389    1.1343 H   0  0  0  0  0  0  0  0  0  0  0  0
   -1.6007   -1.3496   -0.4925 H   0  0  0  0  0  0  0  0  0  0  0  0
   -3.1412   -0.7304   -1.0861 H   0  0  0  0  0  0  0  0  0  0  0  0
   -1.4505    0.7431   -1.9006 H   0  0  0  0  0  0  0  0  0  0  0  0
   -2.2936    1.6174   -0.6127 H   0  0  0  0  0  0  0  0  0  0  0  0
    0.1025    1.9932   -0.3920 H   0  0  0  0  0  0  0  0  0  0  0  0
   -0.4017    0.9727    0.9644 H   0  0  0  0  0  0  0  0  0  0  0  0
    2.9565   -1.8512    0.3728 H   0  0  0  0  0  0  0  0  0  0  0  0
    3.4994   -0.7475   -0.8826 H   0  0  0  0  0  0  0  0  0  0  0  0
    2.0736   -1.7681   -1.1811 H   0  0  0  0  0  0  0  0  0  0  0  0
  1  2  1  0  0  0  0
  2  3  1  0  0  0  0
  3  4  1  0  0  0  0
  4  5  1  0  0  0  0
  5  6  1  0  0  0  0
  6  7  2  0  0  0  0
  6  8  1  0  0  0  0
  1  9  1  0  0  0  0
  1 10  1  0  0  0  0
  1 11  1  0  0  0  0
  2 12  1  0  0  0  0
  2 13  1  0  0  0  0
  3 14  1  0  0  0  0
  3 15  1  0  0  0  0
  4 16  1  0  0  0  0
  4 17  1  0  0  0  0
  8 18  1  0  0  0  0
  8 19  1  0  0  0  0
  8 20  1  0  0  0  0
M  END
