 xtb: 6.7.1 (edcfbbe)
          04112514233D

 23 22  0     0  0            999 V2000
    2.9669    0.9812    1.3093 C   0  0  0  0  0  0  0  0  0  0  0  0
    2.2516    0.4919    0.0506 C   0  0  0  0  0  0  0  0  0  0  0  0
    3.1144   -0.5404   -0.6720 C   0  0  0  0  0  0  0  0  0  0  0  0
    0.8816   -0.0790    0.4327 C   0  0  0  0  0  0  0  0  0  0  0  0
    0.0113   -0.4098   -0.7767 C   0  0  0  0  0  0  0  0  0  0  0  0
   -1.2726   -0.8969   -0.3622 O   0  0  0  0  0  0  0  0  0  0  0  0
   -2.2356   -0.0173   -0.1074 C   0  0  0  0  0  0  0  0  0  0  0  0
   -2.1004    1.1821   -0.2385 O   0  0  0  0  0  0  0  0  0  0  0  0
   -3.4898   -0.6943    0.3570 C   0  0  0  0  0  0  0  0  0  0  0  0
    3.9299    1.4158    1.0537 H   0  0  0  0  0  0  0  0  0  0  0  0
    3.1337    0.1534    1.9945 H   0  0  0  0  0  0  0  0  0  0  0  0
    2.3745    1.7369    1.8194 H   0  0  0  0  0  0  0  0  0  0  0  0
    2.0933    1.3477   -0.6148 H   0  0  0  0  0  0  0  0  0  0  0  0
    3.2277   -1.4323   -0.0604 H   0  0  0  0  0  0  0  0  0  0  0  0
    4.1023   -0.1294   -0.8645 H   0  0  0  0  0  0  0  0  0  0  0  0
    2.6755   -0.8233   -1.6243 H   0  0  0  0  0  0  0  0  0  0  0  0
    0.3458    0.6576    1.0375 H   0  0  0  0  0  0  0  0  0  0  0  0
    1.0106   -0.9813    1.0336 H   0  0  0  0  0  0  0  0  0  0  0  0
   -0.1323    0.4811   -1.3967 H   0  0  0  0  0  0  0  0  0  0  0  0
    0.4332   -1.2209   -1.3693 H   0  0  0  0  0  0  0  0  0  0  0  0
   -3.4743   -1.7398    0.0693 H   0  0  0  0  0  0  0  0  0  0  0  0
   -4.3535   -0.1831   -0.0568 H   0  0  0  0  0  0  0  0  0  0  0  0
   -3.5374   -0.6198    1.4414 H   0  0  0  0  0  0  0  0  0  0  0  0
  1  2  1  0  0  0  0
  2  3  1  0  0  0  0
  2  4  1  0  0  0  0
  4  5  1  0  0  0  0
  5  6  1  0  0  0  0
  6  7  1  0  0  0  0
  7  8  2  0  0  0  0
  7  9  1  0  0  0  0
  1 10  1  0  0  0  0
  1 11  1  0  0  0  0
  1 12  1  0  0  0  0
  2 13  1  0  0  0  0
  3 14  1  0  0  0  0
  3 15  1  0  0  0  0
  3 16  1  0  0  0  0
  4 17  1  0  0  0  0
  4 18  1  0  0  0  0
  5 19  1  0  0  0  0
  5 20  1  0  0  0  0
  9 21  1  0  0  0  0
  9 22  1  0  0  0  0
  9 23  1  0  0  0  0
M  END
