 xtb: 6.7.1 (edcfbbe)
          04112514463D

 23 22  0     0  0            999 V2000
    3.4646    0.2543    0.1438 C   0  0  0  0  0  0  0  0  0  0  0  0
    2.2078   -0.4955   -0.2818 C   0  0  0  0  0  0  0  0  0  0  0  0
    0.9381    0.1969    0.2098 C   0  0  0  0  0  0  0  0  0  0  0  0
   -0.3204   -0.5494   -0.2281 C   0  0  0  0  0  0  0  0  0  0  0  0
   -1.6180    0.0296    0.3474 C   0  0  0  0  0  0  0  0  0  0  0  0
   -1.9125    1.4224   -0.2056 C   0  0  0  0  0  0  0  0  0  0  0  0
   -2.7857   -0.9075    0.0402 C   0  0  0  0  0  0  0  0  0  0  0  0
    3.4618    1.2635   -0.2622 H   0  0  0  0  0  0  0  0  0  0  0  0
    3.5182    0.3223    1.2282 H   0  0  0  0  0  0  0  0  0  0  0  0
    4.3550   -0.2574   -0.2131 H   0  0  0  0  0  0  0  0  0  0  0  0
    2.2408   -1.5129    0.1148 H   0  0  0  0  0  0  0  0  0  0  0  0
    2.1791   -0.5668   -1.3715 H   0  0  0  0  0  0  0  0  0  0  0  0
    0.9609    0.2568    1.3008 H   0  0  0  0  0  0  0  0  0  0  0  0
    0.9208    1.2164   -0.1791 H   0  0  0  0  0  0  0  0  0  0  0  0
   -0.3809   -0.5468   -1.3192 H   0  0  0  0  0  0  0  0  0  0  0  0
   -0.2334   -1.5908    0.0928 H   0  0  0  0  0  0  0  0  0  0  0  0
   -1.5098    0.1027    1.4359 H   0  0  0  0  0  0  0  0  0  0  0  0
   -2.8613    1.7876    0.1808 H   0  0  0  0  0  0  0  0  0  0  0  0
   -1.1378    2.1291    0.0785 H   0  0  0  0  0  0  0  0  0  0  0  0
   -1.9733    1.3919   -1.2915 H   0  0  0  0  0  0  0  0  0  0  0  0
   -2.6068   -1.8958    0.4573 H   0  0  0  0  0  0  0  0  0  0  0  0
   -2.9157   -1.0072   -1.0353 H   0  0  0  0  0  0  0  0  0  0  0  0
   -3.7091   -0.5189    0.4630 H   0  0  0  0  0  0  0  0  0  0  0  0
  1  2  1  0  0  0  0
  2  3  1  0  0  0  0
  3  4  1  0  0  0  0
  4  5  1  0  0  0  0
  5  6  1  0  0  0  0
  5  7  1  0  0  0  0
  1  8  1  0  0  0  0
  1  9  1  0  0  0  0
  1 10  1  0  0  0  0
  2 11  1  0  0  0  0
  2 12  1  0  0  0  0
  3 13  1  0  0  0  0
  3 14  1  0  0  0  0
  4 15  1  0  0  0  0
  4 16  1  0  0  0  0
  5 17  1  0  0  0  0
  6 18  1  0  0  0  0
  6 19  1  0  0  0  0
  6 20  1  0  0  0  0
  7 21  1  0  0  0  0
  7 22  1  0  0  0  0
  7 23  1  0  0  0  0
M  END
