 xtb: 6.7.1 (edcfbbe)
          04112518233D

 26 25  0     0  0            999 V2000
    1.5658   -1.1116   -1.7001 C   0  0  0  0  0  0  0  0  0  0  0  0
    1.8863   -0.6831   -0.2676 C   0  0  0  0  0  0  0  0  0  0  0  0
    3.2355   -1.2390    0.1679 C   0  0  0  0  0  0  0  0  0  0  0  0
    0.8091   -1.0756    0.6881 C   0  0  0  0  0  0  0  0  0  0  0  0
   -0.4322   -0.8365    0.6805 N   0  0  0  0  0  0  0  0  0  0  0  0
   -0.9344   -0.0857   -0.4018 O   0  0  0  0  0  0  0  0  0  0  0  0
   -2.2781    0.1821   -0.3486 C   0  0  0  0  0  0  0  0  0  0  0  0
   -2.7481    0.8120   -1.2782 O   0  0  0  0  0  0  0  0  0  0  0  0
   -2.9277   -0.2747    0.7140 N   0  0  0  0  0  0  0  0  0  0  0  0
   -4.3464   -0.0863    0.9118 C   0  0  0  0  0  0  0  0  0  0  0  0
    1.9405    1.1862   -0.3087 S   0  0  0  0  0  0  0  0  0  0  0  0
    2.2691    1.6052    1.4330 C   0  0  0  0  0  0  0  0  0  0  0  0
    1.4729   -2.1943   -1.7497 H   0  0  0  0  0  0  0  0  0  0  0  0
    0.6370   -0.6602   -2.0412 H   0  0  0  0  0  0  0  0  0  0  0  0
    2.3666   -0.7909   -2.3613 H   0  0  0  0  0  0  0  0  0  0  0  0
    3.4524   -0.9878    1.2027 H   0  0  0  0  0  0  0  0  0  0  0  0
    4.0210   -0.8322   -0.4635 H   0  0  0  0  0  0  0  0  0  0  0  0
    3.2322   -2.3220    0.0670 H   0  0  0  0  0  0  0  0  0  0  0  0
    1.1066   -1.6412    1.5630 H   0  0  0  0  0  0  0  0  0  0  0  0
   -2.3960   -0.7951    1.4005 H   0  0  0  0  0  0  0  0  0  0  0  0
   -4.7306    0.4885    0.0714 H   0  0  0  0  0  0  0  0  0  0  0  0
   -4.5239    0.4584    1.8378 H   0  0  0  0  0  0  0  0  0  0  0  0
   -4.8491   -1.0515    0.9528 H   0  0  0  0  0  0  0  0  0  0  0  0
    3.2440    1.2342    1.7291 H   0  0  0  0  0  0  0  0  0  0  0  0
    1.4813    1.2068    2.0640 H   0  0  0  0  0  0  0  0  0  0  0  0
    2.2605    2.6894    1.4695 H   0  0  0  0  0  0  0  0  0  0  0  0
  1  2  1  0  0  0  0
  2  3  1  0  0  0  0
  2  4  1  0  0  0  0
  4  5  2  0  0  0  0
  5  6  1  0  0  0  0
  6  7  1  0  0  0  0
  7  8  2  0  0  0  0
  7  9  4  0  0  0  0
  9 10  1  0  0  0  0
  2 11  1  0  0  0  0
 11 12  1  0  0  0  0
  1 13  1  0  0  0  0
  1 14  1  0  0  0  0
  1 15  1  0  0  0  0
  3 16  1  0  0  0  0
  3 17  1  0  0  0  0
  3 18  1  0  0  0  0
  4 19  1  0  0  0  0
  9 20  1  0  0  0  0
 10 21  1  0  0  0  0
 10 22  1  0  0  0  0
 10 23  1  0  0  0  0
 12 24  1  0  0  0  0
 12 25  1  0  0  0  0
 12 26  1  0  0  0  0
M  END
