 xtb: 6.7.1 (edcfbbe)
          04112514243D

 14 13  0     0  0            999 V2000
    0.3853    0.1818   -0.2917 C   0  0  0  0  0  0  0  0  0  0  0  0
   -0.7024    1.2457   -0.1313 C   0  0  0  0  0  0  0  0  0  0  0  0
   -2.0343    0.7935   -0.7016 C   0  0  0  0  0  0  0  0  0  0  0  0
   -2.7057   -0.5943    0.2337 Cl  0  0  0  0  0  0  0  0  0  0  0  0
    1.7000    0.6662    0.2938 C   0  0  0  0  0  0  0  0  0  0  0  0
    2.9737   -0.5913    0.1074 Cl  0  0  0  0  0  0  0  0  0  0  0  0
    0.5213   -0.0488   -1.3493 H   0  0  0  0  0  0  0  0  0  0  0  0
    0.0765   -0.7335    0.2156 H   0  0  0  0  0  0  0  0  0  0  0  0
   -0.4081    2.1522   -0.6622 H   0  0  0  0  0  0  0  0  0  0  0  0
   -0.8231    1.4910    0.9243 H   0  0  0  0  0  0  0  0  0  0  0  0
   -2.7814    1.5819   -0.6405 H   0  0  0  0  0  0  0  0  0  0  0  0
   -1.9347    0.4438   -1.7273 H   0  0  0  0  0  0  0  0  0  0  0  0
    2.0686    1.5512   -0.2215 H   0  0  0  0  0  0  0  0  0  0  0  0
    1.6179    0.8597    1.3618 H   0  0  0  0  0  0  0  0  0  0  0  0
  1  2  1  0  0  0  0
  2  3  1  0  0  0  0
  3  4  1  0  0  0  0
  1  5  1  0  0  0  0
  5  6  1  0  0  0  0
  1  7  1  0  0  0  0
  1  8  1  0  0  0  0
  2  9  1  0  0  0  0
  2 10  1  0  0  0  0
  3 11  1  0  0  0  0
  3 12  1  0  0  0  0
  5 13  1  0  0  0  0
  5 14  1  0  0  0  0
M  END
