 xtb: 6.7.1 (edcfbbe)
          04112516153D

 26 25  0     0  0            999 V2000
    0.8035   -0.4802   -1.5327 C   0  0  0  0  0  0  0  0  0  0  0  0
    1.6701   -0.5646   -0.2886 C   0  0  0  0  0  0  0  0  0  0  0  0
    2.8012   -1.5774   -0.4772 C   0  0  0  0  0  0  0  0  0  0  0  0
    0.9913   -0.8439    1.0100 C   0  0  0  0  0  0  0  0  0  0  0  0
   -0.1972   -1.0714    1.3655 N   0  0  0  0  0  0  0  0  0  0  0  0
   -1.2097   -1.1897    0.3672 O   0  0  0  0  0  0  0  0  0  0  0  0
   -2.0450   -0.1210    0.2431 C   0  0  0  0  0  0  0  0  0  0  0  0
   -1.7939    0.9826    0.6944 O   0  0  0  0  0  0  0  0  0  0  0  0
   -3.1151   -0.4621   -0.4727 N   0  0  0  0  0  0  0  0  0  0  0  0
   -4.1538    0.4769   -0.8342 C   0  0  0  0  0  0  0  0  0  0  0  0
    2.5198    1.0711    0.0253 S   0  0  0  0  0  0  0  0  0  0  0  0
    1.1570    2.2669    0.0710 C   0  0  0  0  0  0  0  0  0  0  0  0
    0.3335   -1.4433   -1.7219 H   0  0  0  0  0  0  0  0  0  0  0  0
    0.0248    0.2727   -1.4289 H   0  0  0  0  0  0  0  0  0  0  0  0
    1.4263   -0.2168   -2.3847 H   0  0  0  0  0  0  0  0  0  0  0  0
    3.3787   -1.3145   -1.3590 H   0  0  0  0  0  0  0  0  0  0  0  0
    2.3852   -2.5740   -0.6046 H   0  0  0  0  0  0  0  0  0  0  0  0
    3.4646   -1.5744    0.3835 H   0  0  0  0  0  0  0  0  0  0  0  0
    1.6596   -0.8358    1.8647 H   0  0  0  0  0  0  0  0  0  0  0  0
   -3.2013   -1.4221   -0.7705 H   0  0  0  0  0  0  0  0  0  0  0  0
   -3.8899    1.4463   -0.4165 H   0  0  0  0  0  0  0  0  0  0  0  0
   -5.1094    0.1539   -0.4242 H   0  0  0  0  0  0  0  0  0  0  0  0
   -4.2280    0.5548   -1.9181 H   0  0  0  0  0  0  0  0  0  0  0  0
    0.2998    1.8468    0.5897 H   0  0  0  0  0  0  0  0  0  0  0  0
    0.8916    2.5593   -0.9407 H   0  0  0  0  0  0  0  0  0  0  0  0
    1.5316    3.1249    0.6194 H   0  0  0  0  0  0  0  0  0  0  0  0
  1  2  1  0  0  0  0
  2  3  1  0  0  0  0
  2  4  1  0  0  0  0
  4  5  2  0  0  0  0
  5  6  1  0  0  0  0
  6  7  1  0  0  0  0
  7  8  2  0  0  0  0
  7  9  4  0  0  0  0
  9 10  1  0  0  0  0
  2 11  1  0  0  0  0
 11 12  1  0  0  0  0
  1 13  1  0  0  0  0
  1 14  1  0  0  0  0
  1 15  1  0  0  0  0
  3 16  1  0  0  0  0
  3 17  1  0  0  0  0
  3 18  1  0  0  0  0
  4 19  1  0  0  0  0
  9 20  1  0  0  0  0
 10 21  1  0  0  0  0
 10 22  1  0  0  0  0
 10 23  1  0  0  0  0
 12 24  1  0  0  0  0
 12 25  1  0  0  0  0
 12 26  1  0  0  0  0
M  END
