 xtb: 6.7.1 (edcfbbe)
          04112517153D

 20 19  0     0  0            999 V2000
   -3.8201   -0.5439   -0.2769 C   0  0  0  0  0  0  0  0  0  0  0  0
   -2.6865    0.1017    0.5110 C   0  0  0  0  0  0  0  0  0  0  0  0
   -1.3339   -0.1439   -0.1528 C   0  0  0  0  0  0  0  0  0  0  0  0
   -0.1885    0.4914    0.6437 C   0  0  0  0  0  0  0  0  0  0  0  0
    1.1139    0.3308   -0.0934 C   0  0  0  0  0  0  0  0  0  0  0  0
    1.3351    0.7362   -1.2153 O   0  0  0  0  0  0  0  0  0  0  0  0
    2.0125   -0.3295    0.6284 O   0  0  0  0  0  0  0  0  0  0  0  0
    3.2964   -0.5591    0.0408 C   0  0  0  0  0  0  0  0  0  0  0  0
   -3.8592   -0.1410   -1.2862 H   0  0  0  0  0  0  0  0  0  0  0  0
   -3.6740   -1.6194   -0.3438 H   0  0  0  0  0  0  0  0  0  0  0  0
   -4.7751   -0.3556    0.2066 H   0  0  0  0  0  0  0  0  0  0  0  0
   -2.8620    1.1765    0.5848 H   0  0  0  0  0  0  0  0  0  0  0  0
   -2.6698   -0.3050    1.5238 H   0  0  0  0  0  0  0  0  0  0  0  0
   -1.3332    0.2752   -1.1613 H   0  0  0  0  0  0  0  0  0  0  0  0
   -1.1604   -1.2187   -0.2386 H   0  0  0  0  0  0  0  0  0  0  0  0
   -0.0951    0.0349    1.6280 H   0  0  0  0  0  0  0  0  0  0  0  0
   -0.3817    1.5599    0.7548 H   0  0  0  0  0  0  0  0  0  0  0  0
    3.7707    0.3928   -0.2003 H   0  0  0  0  0  0  0  0  0  0  0  0
    3.1879   -1.1427   -0.8740 H   0  0  0  0  0  0  0  0  0  0  0  0
    3.8670   -1.1027    0.7868 H   0  0  0  0  0  0  0  0  0  0  0  0
  1  2  1  0  0  0  0
  2  3  1  0  0  0  0
  3  4  1  0  0  0  0
  4  5  1  0  0  0  0
  5  6  2  0  0  0  0
  5  7  1  0  0  0  0
  7  8  1  0  0  0  0
  1  9  1  0  0  0  0
  1 10  1  0  0  0  0
  1 11  1  0  0  0  0
  2 12  1  0  0  0  0
  2 13  1  0  0  0  0
  3 14  1  0  0  0  0
  3 15  1  0  0  0  0
  4 16  1  0  0  0  0
  4 17  1  0  0  0  0
  8 18  1  0  0  0  0
  8 19  1  0  0  0  0
  8 20  1  0  0  0  0
M  END
