 xtb: 6.7.1 (edcfbbe)
          04112516353D

 19 18  0     0  0            999 V2000
    3.4145   -0.2989    0.0713 C   0  0  0  0  0  0  0  0  0  0  0  0
    2.1847    0.5897   -0.0710 C   0  0  0  0  0  0  0  0  0  0  0  0
    0.8924   -0.2135    0.0502 C   0  0  0  0  0  0  0  0  0  0  0  0
   -0.3451    0.6695   -0.0851 C   0  0  0  0  0  0  0  0  0  0  0  0
   -1.6355   -0.1079   -0.0182 C   0  0  0  0  0  0  0  0  0  0  0  0
   -1.6750   -1.3225   -0.0420 O   0  0  0  0  0  0  0  0  0  0  0  0
   -2.8748    0.7348    0.0895 C   0  0  0  0  0  0  0  0  0  0  0  0
    3.4213   -1.0652   -0.7005 H   0  0  0  0  0  0  0  0  0  0  0  0
    4.3244    0.2892   -0.0188 H   0  0  0  0  0  0  0  0  0  0  0  0
    3.4174   -0.7924    1.0406 H   0  0  0  0  0  0  0  0  0  0  0  0
    2.2101    1.0892   -1.0419 H   0  0  0  0  0  0  0  0  0  0  0  0
    2.2045    1.3610    0.7019 H   0  0  0  0  0  0  0  0  0  0  0  0
    0.8642   -0.7230    1.0162 H   0  0  0  0  0  0  0  0  0  0  0  0
    0.8630   -0.9870   -0.7204 H   0  0  0  0  0  0  0  0  0  0  0  0
   -0.3575    1.4370    0.6905 H   0  0  0  0  0  0  0  0  0  0  0  0
   -0.3273    1.1844   -1.0493 H   0  0  0  0  0  0  0  0  0  0  0  0
   -2.8118    1.5992   -0.5637 H   0  0  0  0  0  0  0  0  0  0  0  0
   -3.7544    0.1420   -0.1453 H   0  0  0  0  0  0  0  0  0  0  0  0
   -2.9587    1.0893    1.1151 H   0  0  0  0  0  0  0  0  0  0  0  0
  1  2  1  0  0  0  0
  2  3  1  0  0  0  0
  3  4  1  0  0  0  0
  4  5  1  0  0  0  0
  5  6  2  0  0  0  0
  5  7  1  0  0  0  0
  1  8  1  0  0  0  0
  1  9  1  0  0  0  0
  1 10  1  0  0  0  0
  2 11  1  0  0  0  0
  2 12  1  0  0  0  0
  3 13  1  0  0  0  0
  3 14  1  0  0  0  0
  4 15  1  0  0  0  0
  4 16  1  0  0  0  0
  7 17  1  0  0  0  0
  7 18  1  0  0  0  0
  7 19  1  0  0  0  0
M  END
