 xtb: 6.7.1 (edcfbbe)
          04112516113D

 17 16  0     0  0            999 V2000
   -2.6389   -0.9995    0.7099 C   0  0  0  0  0  0  0  0  0  0  0  0
   -2.8671    0.3473    0.0291 C   0  0  0  0  0  0  0  0  0  0  0  0
   -1.6738    0.8707   -0.7792 C   0  0  0  0  0  0  0  0  0  0  0  0
   -0.6232    1.6504    0.0150 C   0  0  0  0  0  0  0  0  0  0  0  0
    0.2924    0.8154    0.8886 C   0  0  0  0  0  0  0  0  0  0  0  0
    1.3591   -0.4680   -0.1665 Br  0  0  0  0  0  0  0  0  0  0  0  0
   -2.2286   -1.7186    0.0041 H   0  0  0  0  0  0  0  0  0  0  0  0
   -3.5828   -1.3902    1.0834 H   0  0  0  0  0  0  0  0  0  0  0  0
   -1.9598   -0.9229    1.5546 H   0  0  0  0  0  0  0  0  0  0  0  0
   -3.7067    0.2311   -0.6596 H   0  0  0  0  0  0  0  0  0  0  0  0
   -3.1583    1.0907    0.7741 H   0  0  0  0  0  0  0  0  0  0  0  0
   -1.1937    0.0380   -1.2980 H   0  0  0  0  0  0  0  0  0  0  0  0
   -2.0584    1.5474   -1.5449 H   0  0  0  0  0  0  0  0  0  0  0  0
   -0.0071    2.2152   -0.6892 H   0  0  0  0  0  0  0  0  0  0  0  0
   -1.1226    2.3689    0.6700 H   0  0  0  0  0  0  0  0  0  0  0  0
   -0.2499    0.2128    1.6114 H   0  0  0  0  0  0  0  0  0  0  0  0
    1.0244    1.4379    1.4006 H   0  0  0  0  0  0  0  0  0  0  0  0
  1  2  1  0  0  0  0
  2  3  1  0  0  0  0
  3  4  1  0  0  0  0
  4  5  1  0  0  0  0
  5  6  1  0  0  0  0
  1  7  1  0  0  0  0
  1  8  1  0  0  0  0
  1  9  1  0  0  0  0
  2 10  1  0  0  0  0
  2 11  1  0  0  0  0
  3 12  1  0  0  0  0
  3 13  1  0  0  0  0
  4 14  1  0  0  0  0
  4 15  1  0  0  0  0
  5 16  1  0  0  0  0
  5 17  1  0  0  0  0
M  END
