 xtb: 6.7.1 (edcfbbe)
          04112514343D

 14 13  0     0  0            999 V2000
    0.6593    1.5954   -0.0141 C   0  0  0  0  0  0  0  0  0  0  0  0
   -0.6254    1.2639    0.7482 C   0  0  0  0  0  0  0  0  0  0  0  0
   -1.7939    0.8418   -0.1293 C   0  0  0  0  0  0  0  0  0  0  0  0
   -1.7252   -0.9042   -0.5901 Cl  0  0  0  0  0  0  0  0  0  0  0  0
    1.3480    0.3961   -0.6406 C   0  0  0  0  0  0  0  0  0  0  0  0
    1.8977   -0.7693    0.6188 Cl  0  0  0  0  0  0  0  0  0  0  0  0
    1.3541    2.0784    0.6741 H   0  0  0  0  0  0  0  0  0  0  0  0
    0.4335    2.2972   -0.8188 H   0  0  0  0  0  0  0  0  0  0  0  0
   -0.9392    2.1612    1.2838 H   0  0  0  0  0  0  0  0  0  0  0  0
   -0.4211    0.4888    1.4879 H   0  0  0  0  0  0  0  0  0  0  0  0
   -2.7373    0.9535    0.4011 H   0  0  0  0  0  0  0  0  0  0  0  0
   -1.8202    1.3997   -1.0631 H   0  0  0  0  0  0  0  0  0  0  0  0
    0.6833   -0.1618   -1.2960 H   0  0  0  0  0  0  0  0  0  0  0  0
    2.2446    0.6952   -1.1798 H   0  0  0  0  0  0  0  0  0  0  0  0
  1  2  1  0  0  0  0
  2  3  1  0  0  0  0
  3  4  1  0  0  0  0
  1  5  1  0  0  0  0
  5  6  1  0  0  0  0
  1  7  1  0  0  0  0
  1  8  1  0  0  0  0
  2  9  1  0  0  0  0
  2 10  1  0  0  0  0
  3 11  1  0  0  0  0
  3 12  1  0  0  0  0
  5 13  1  0  0  0  0
  5 14  1  0  0  0  0
M  END
