 xtb: 6.7.1 (edcfbbe)
          04112514133D

 23 22  0     0  0            999 V2000
    3.0309   -0.1695   -0.6953 C   0  0  0  0  0  0  0  0  0  0  0  0
    1.7829   -0.6726    0.0214 C   0  0  0  0  0  0  0  0  0  0  0  0
    0.8668    0.4800    0.4322 C   0  0  0  0  0  0  0  0  0  0  0  0
   -0.4079    0.0171    1.1526 C   0  0  0  0  0  0  0  0  0  0  0  0
   -1.6798   -0.0490    0.2920 C   0  0  0  0  0  0  0  0  0  0  0  0
   -2.1392    1.3410   -0.1463 C   0  0  0  0  0  0  0  0  0  0  0  0
   -1.5242   -0.9656   -0.9189 C   0  0  0  0  0  0  0  0  0  0  0  0
    2.7598    0.3680   -1.6015 H   0  0  0  0  0  0  0  0  0  0  0  0
    3.5931    0.5057   -0.0538 H   0  0  0  0  0  0  0  0  0  0  0  0
    3.6765   -1.0004   -0.9694 H   0  0  0  0  0  0  0  0  0  0  0  0
    2.0798   -1.2286    0.9141 H   0  0  0  0  0  0  0  0  0  0  0  0
    1.2454   -1.3601   -0.6323 H   0  0  0  0  0  0  0  0  0  0  0  0
    1.4317    1.1406    1.0941 H   0  0  0  0  0  0  0  0  0  0  0  0
    0.6082    1.0623   -0.4527 H   0  0  0  0  0  0  0  0  0  0  0  0
   -0.2286   -0.9712    1.5824 H   0  0  0  0  0  0  0  0  0  0  0  0
   -0.6145    0.6947    1.9841 H   0  0  0  0  0  0  0  0  0  0  0  0
   -2.4657   -0.4699    0.9317 H   0  0  0  0  0  0  0  0  0  0  0  0
   -1.4162    1.8000   -0.8159 H   0  0  0  0  0  0  0  0  0  0  0  0
   -3.0894    1.2741   -0.6713 H   0  0  0  0  0  0  0  0  0  0  0  0
   -2.2682    1.9906    0.7162 H   0  0  0  0  0  0  0  0  0  0  0  0
   -0.7957   -0.5635   -1.6178 H   0  0  0  0  0  0  0  0  0  0  0  0
   -2.4747   -1.0614   -1.4396 H   0  0  0  0  0  0  0  0  0  0  0  0
   -1.2034   -1.9576   -0.6092 H   0  0  0  0  0  0  0  0  0  0  0  0
  1  2  1  0  0  0  0
  2  3  1  0  0  0  0
  3  4  1  0  0  0  0
  4  5  1  0  0  0  0
  5  6  1  0  0  0  0
  5  7  1  0  0  0  0
  1  8  1  0  0  0  0
  1  9  1  0  0  0  0
  1 10  1  0  0  0  0
  2 11  1  0  0  0  0
  2 12  1  0  0  0  0
  3 13  1  0  0  0  0
  3 14  1  0  0  0  0
  4 15  1  0  0  0  0
  4 16  1  0  0  0  0
  5 17  1  0  0  0  0
  6 18  1  0  0  0  0
  6 19  1  0  0  0  0
  6 20  1  0  0  0  0
  7 21  1  0  0  0  0
  7 22  1  0  0  0  0
  7 23  1  0  0  0  0
M  END
