 xtb: 6.7.1 (edcfbbe)
          04112516253D

 17 16  0     0  0            999 V2000
   -2.3735   -0.8730   -0.0031 C   0  0  0  0  0  0  0  0  0  0  0  0
   -1.6749    0.2889    0.6953 C   0  0  0  0  0  0  0  0  0  0  0  0
   -0.9094    1.2026   -0.2634 C   0  0  0  0  0  0  0  0  0  0  0  0
    0.2219    0.4858   -1.0085 C   0  0  0  0  0  0  0  0  0  0  0  0
    1.2410   -0.0679   -0.0499 C   0  0  0  0  0  0  0  0  0  0  0  0
    1.7991    0.5694    0.8185 O   0  0  0  0  0  0  0  0  0  0  0  0
    1.4815   -1.3548   -0.2508 O   0  0  0  0  0  0  0  0  0  0  0  0
   -3.0052   -0.5060   -0.8085 H   0  0  0  0  0  0  0  0  0  0  0  0
   -1.6520   -1.5732   -0.4156 H   0  0  0  0  0  0  0  0  0  0  0  0
   -2.9981   -1.4124    0.7047 H   0  0  0  0  0  0  0  0  0  0  0  0
   -0.9852   -0.0980    1.4499 H   0  0  0  0  0  0  0  0  0  0  0  0
   -2.4216    0.8926    1.2155 H   0  0  0  0  0  0  0  0  0  0  0  0
   -1.6000    1.6183   -0.9980 H   0  0  0  0  0  0  0  0  0  0  0  0
   -0.4772    2.0263    0.3083 H   0  0  0  0  0  0  0  0  0  0  0  0
    0.7341    1.2064   -1.6488 H   0  0  0  0  0  0  0  0  0  0  0  0
   -0.1577   -0.3273   -1.6241 H   0  0  0  0  0  0  0  0  0  0  0  0
    2.1499   -1.7186    0.3619 H   0  0  0  0  0  0  0  0  0  0  0  0
  1  2  1  0  0  0  0
  2  3  1  0  0  0  0
  3  4  1  0  0  0  0
  4  5  1  0  0  0  0
  5  6  2  0  0  0  0
  5  7  1  0  0  0  0
  1  8  1  0  0  0  0
  1  9  1  0  0  0  0
  1 10  1  0  0  0  0
  2 11  1  0  0  0  0
  2 12  1  0  0  0  0
  3 13  1  0  0  0  0
  3 14  1  0  0  0  0
  4 15  1  0  0  0  0
  4 16  1  0  0  0  0
  7 17  1  0  0  0  0
M  END
