 xtb: 6.7.1 (edcfbbe)
          04112516293D

 20 19  0     0  0            999 V2000
   -3.3136   -0.7682   -0.5569 C   0  0  0  0  0  0  0  0  0  0  0  0
   -2.1587   -0.3931    0.3635 C   0  0  0  0  0  0  0  0  0  0  0  0
   -1.3401    0.7645   -0.2055 C   0  0  0  0  0  0  0  0  0  0  0  0
   -0.1565    1.1259    0.6872 C   0  0  0  0  0  0  0  0  0  0  0  0
    0.7667    0.0341    0.8025 O   0  0  0  0  0  0  0  0  0  0  0  0
    1.7113   -0.0965   -0.1225 C   0  0  0  0  0  0  0  0  0  0  0  0
    1.8562    0.6767   -1.0474 O   0  0  0  0  0  0  0  0  0  0  0  0
    2.5608   -1.3068    0.1251 C   0  0  0  0  0  0  0  0  0  0  0  0
   -3.9812    0.0792   -0.6935 H   0  0  0  0  0  0  0  0  0  0  0  0
   -2.9412   -1.0707   -1.5331 H   0  0  0  0  0  0  0  0  0  0  0  0
   -3.8835   -1.5921   -0.1356 H   0  0  0  0  0  0  0  0  0  0  0  0
   -2.5498   -0.1070    1.3417 H   0  0  0  0  0  0  0  0  0  0  0  0
   -1.5067   -1.2572    0.5057 H   0  0  0  0  0  0  0  0  0  0  0  0
   -0.9627    0.5019   -1.1969 H   0  0  0  0  0  0  0  0  0  0  0  0
   -1.9687    1.6497   -0.3085 H   0  0  0  0  0  0  0  0  0  0  0  0
    0.3757    1.9912    0.2801 H   0  0  0  0  0  0  0  0  0  0  0  0
   -0.4806    1.3248    1.7094 H   0  0  0  0  0  0  0  0  0  0  0  0
    3.5990   -1.0707   -0.0878 H   0  0  0  0  0  0  0  0  0  0  0  0
    2.2460   -2.0935   -0.5574 H   0  0  0  0  0  0  0  0  0  0  0  0
    2.4357   -1.6442    1.1482 H   0  0  0  0  0  0  0  0  0  0  0  0
  1  2  1  0  0  0  0
  2  3  1  0  0  0  0
  3  4  1  0  0  0  0
  4  5  1  0  0  0  0
  5  6  1  0  0  0  0
  6  7  2  0  0  0  0
  6  8  1  0  0  0  0
  1  9  1  0  0  0  0
  1 10  1  0  0  0  0
  1 11  1  0  0  0  0
  2 12  1  0  0  0  0
  2 13  1  0  0  0  0
  3 14  1  0  0  0  0
  3 15  1  0  0  0  0
  4 16  1  0  0  0  0
  4 17  1  0  0  0  0
  8 18  1  0  0  0  0
  8 19  1  0  0  0  0
  8 20  1  0  0  0  0
M  END
