 xtb: 6.7.1 (edcfbbe)
          04112516273D

 20 19  0     0  0            999 V2000
    2.1960   -1.6864   -0.2421 C   0  0  0  0  0  0  0  0  0  0  0  0
    1.8554   -0.2546    0.0179 C   0  0  0  0  0  0  0  0  0  0  0  0
    2.2484    0.4061    0.9548 O   0  0  0  0  0  0  0  0  0  0  0  0
    1.0424    0.2339   -0.9227 O   0  0  0  0  0  0  0  0  0  0  0  0
    0.5387    1.5610   -0.7474 C   0  0  0  0  0  0  0  0  0  0  0  0
   -0.5810    1.5941    0.2929 C   0  0  0  0  0  0  0  0  0  0  0  0
   -1.6934    0.8088   -0.1378 O   0  0  0  0  0  0  0  0  0  0  0  0
   -1.7406   -0.4798    0.2031 C   0  0  0  0  0  0  0  0  0  0  0  0
   -0.9041   -1.0217    0.8947 O   0  0  0  0  0  0  0  0  0  0  0  0
   -2.9624   -1.1412   -0.3532 C   0  0  0  0  0  0  0  0  0  0  0  0
    1.4132   -2.2881    0.2190 H   0  0  0  0  0  0  0  0  0  0  0  0
    3.1470   -1.9307    0.2192 H   0  0  0  0  0  0  0  0  0  0  0  0
    2.2052   -1.8813   -1.3091 H   0  0  0  0  0  0  0  0  0  0  0  0
    1.3481    2.2194   -0.4202 H   0  0  0  0  0  0  0  0  0  0  0  0
    0.1635    1.8492   -1.7291 H   0  0  0  0  0  0  0  0  0  0  0  0
   -0.9561    2.6108    0.4037 H   0  0  0  0  0  0  0  0  0  0  0  0
   -0.2110    1.2104    1.2492 H   0  0  0  0  0  0  0  0  0  0  0  0
   -3.1365   -0.7963   -1.3673 H   0  0  0  0  0  0  0  0  0  0  0  0
   -3.8164   -0.8552    0.2569 H   0  0  0  0  0  0  0  0  0  0  0  0
   -2.8431   -2.2190   -0.3194 H   0  0  0  0  0  0  0  0  0  0  0  0
  1  2  1  0  0  0  0
  2  3  2  0  0  0  0
  2  4  1  0  0  0  0
  4  5  1  0  0  0  0
  5  6  1  0  0  0  0
  6  7  1  0  0  0  0
  7  8  1  0  0  0  0
  8  9  2  0  0  0  0
  8 10  1  0  0  0  0
  1 11  1  0  0  0  0
  1 12  1  0  0  0  0
  1 13  1  0  0  0  0
  5 14  1  0  0  0  0
  5 15  1  0  0  0  0
  6 16  1  0  0  0  0
  6 17  1  0  0  0  0
 10 18  1  0  0  0  0
 10 19  1  0  0  0  0
 10 20  1  0  0  0  0
M  END
