 xtb: 6.7.1 (edcfbbe)
          04112517193D

 23 23  0     0  0            999 V2000
   -3.9704   -0.7391   -0.1173 C   0  0  0  0  0  0  0  0  0  0  0  0
   -3.0741    0.3536    0.0049 O   0  0  0  0  0  0  0  0  0  0  0  0
   -1.7486    0.0969    0.0212 C   0  0  0  0  0  0  0  0  0  0  0  0
   -1.1646   -1.1492   -0.0735 C   0  0  0  0  0  0  0  0  0  0  0  0
    0.2271   -1.3160   -0.0296 C   0  0  0  0  0  0  0  0  0  0  0  0
    1.0478   -0.1909    0.0939 C   0  0  0  0  0  0  0  0  0  0  0  0
    0.4847    1.0791    0.1549 C   0  0  0  0  0  0  0  0  0  0  0  0
   -0.9101    1.2283    0.1420 C   0  0  0  0  0  0  0  0  0  0  0  0
   -1.4622    2.4409    0.2499 O   0  0  0  0  0  0  0  0  0  0  0  0
    1.2105    2.2431    0.2886 O   0  0  0  0  0  0  0  0  0  0  0  0
    1.9830    2.6321   -0.8490 C   0  0  0  0  0  0  0  0  0  0  0  0
    2.7651   -0.3596    0.2238 Cl  0  0  0  0  0  0  0  0  0  0  0  0
    0.7618   -2.6657   -0.1117 C   0  0  0  0  0  0  0  0  0  0  0  0
    0.0896   -3.6747   -0.2055 O   0  0  0  0  0  0  0  0  0  0  0  0
   -4.9617   -0.2931   -0.1058 H   0  0  0  0  0  0  0  0  0  0  0  0
   -3.8637   -1.4292    0.7223 H   0  0  0  0  0  0  0  0  0  0  0  0
   -3.8133   -1.2717   -1.0576 H   0  0  0  0  0  0  0  0  0  0  0  0
   -1.7511   -2.0485   -0.1707 H   0  0  0  0  0  0  0  0  0  0  0  0
   -0.7590    3.1053    0.3895 H   0  0  0  0  0  0  0  0  0  0  0  0
    2.4385    3.5789   -0.5716 H   0  0  0  0  0  0  0  0  0  0  0  0
    1.3399    2.7625   -1.7223 H   0  0  0  0  0  0  0  0  0  0  0  0
    2.7604    1.9027   -1.0763 H   0  0  0  0  0  0  0  0  0  0  0  0
    1.8610   -2.7390   -0.0867 H   0  0  0  0  0  0  0  0  0  0  0  0
  1  2  1  0  0  0  0
  2  3  1  0  0  0  0
  3  4  4  0  0  0  0
  4  5  4  0  0  0  0
  5  6  4  0  0  0  0
  6  7  4  0  0  0  0
  3  8  4  0  0  0  0
  7  8  4  0  0  0  0
  8  9  1  0  0  0  0
  7 10  1  0  0  0  0
 10 11  1  0  0  0  0
  6 12  1  0  0  0  0
  5 13  1  0  0  0  0
 13 14  2  0  0  0  0
  1 15  1  0  0  0  0
  1 16  1  0  0  0  0
  1 17  1  0  0  0  0
  4 18  1  0  0  0  0
  9 19  1  0  0  0  0
 11 20  1  0  0  0  0
 11 21  1  0  0  0  0
 11 22  1  0  0  0  0
 13 23  1  0  0  0  0
M  END
