 xtb: 6.7.1 (edcfbbe)
          04112516013D

 20 19  0     0  0            999 V2000
   -3.6551   -0.6607    0.4116 C   0  0  0  0  0  0  0  0  0  0  0  0
   -2.3295   -0.4461   -0.3088 C   0  0  0  0  0  0  0  0  0  0  0  0
   -1.5453    0.7191    0.2924 C   0  0  0  0  0  0  0  0  0  0  0  0
   -0.2099    0.9315   -0.4084 C   0  0  0  0  0  0  0  0  0  0  0  0
    0.6282   -0.2122   -0.1853 O   0  0  0  0  0  0  0  0  0  0  0  0
    1.9303   -0.0307   -0.0067 C   0  0  0  0  0  0  0  0  0  0  0  0
    2.4668    1.0587   -0.0298 O   0  0  0  0  0  0  0  0  0  0  0  0
    2.6377   -1.3329    0.2214 C   0  0  0  0  0  0  0  0  0  0  0  0
   -4.2750    0.2299    0.3411 H   0  0  0  0  0  0  0  0  0  0  0  0
   -4.1969   -1.4930   -0.0296 H   0  0  0  0  0  0  0  0  0  0  0  0
   -3.4873   -0.8787    1.4636 H   0  0  0  0  0  0  0  0  0  0  0  0
   -1.7236   -1.3511   -0.2441 H   0  0  0  0  0  0  0  0  0  0  0  0
   -2.5178   -0.2442   -1.3650 H   0  0  0  0  0  0  0  0  0  0  0  0
   -2.1225    1.6402    0.2047 H   0  0  0  0  0  0  0  0  0  0  0  0
   -1.3628    0.5295    1.3516 H   0  0  0  0  0  0  0  0  0  0  0  0
   -0.3483    1.0332   -1.4892 H   0  0  0  0  0  0  0  0  0  0  0  0
    0.3073    1.8196   -0.0312 H   0  0  0  0  0  0  0  0  0  0  0  0
    2.5452   -1.9459   -0.6714 H   0  0  0  0  0  0  0  0  0  0  0  0
    2.1649   -1.8611    1.0443 H   0  0  0  0  0  0  0  0  0  0  0  0
    3.6840   -1.1460    0.4383 H   0  0  0  0  0  0  0  0  0  0  0  0
  1  2  1  0  0  0  0
  2  3  1  0  0  0  0
  3  4  1  0  0  0  0
  4  5  1  0  0  0  0
  5  6  1  0  0  0  0
  6  7  2  0  0  0  0
  6  8  1  0  0  0  0
  1  9  1  0  0  0  0
  1 10  1  0  0  0  0
  1 11  1  0  0  0  0
  2 12  1  0  0  0  0
  2 13  1  0  0  0  0
  3 14  1  0  0  0  0
  3 15  1  0  0  0  0
  4 16  1  0  0  0  0
  4 17  1  0  0  0  0
  8 18  1  0  0  0  0
  8 19  1  0  0  0  0
  8 20  1  0  0  0  0
M  END
