 xtb: 6.7.1 (edcfbbe)
          04112514343D

 18 17  0     0  0            999 V2000
    2.2647    0.7757   -0.4262 C   0  0  0  0  0  0  0  0  0  0  0  0
    1.9208   -0.5592    0.2251 C   0  0  0  0  0  0  0  0  0  0  0  0
    0.4940   -0.5939    0.7749 C   0  0  0  0  0  0  0  0  0  0  0  0
   -0.5866   -0.6087   -0.3260 C   0  0  0  0  0  0  0  0  0  0  0  0
   -1.5326    0.5413   -0.1929 C   0  0  0  0  0  0  0  0  0  0  0  0
   -2.8390    0.4282   -0.0423 C   0  0  0  0  0  0  0  0  0  0  0  0
    3.2841    0.7623   -0.8047 H   0  0  0  0  0  0  0  0  0  0  0  0
    2.1781    1.5828    0.2982 H   0  0  0  0  0  0  0  0  0  0  0  0
    1.5965    0.9892   -1.2568 H   0  0  0  0  0  0  0  0  0  0  0  0
    2.0485   -1.3661   -0.5000 H   0  0  0  0  0  0  0  0  0  0  0  0
    2.6177   -0.7406    1.0467 H   0  0  0  0  0  0  0  0  0  0  0  0
    0.3796   -1.4795    1.4017 H   0  0  0  0  0  0  0  0  0  0  0  0
    0.3457    0.2762    1.4185 H   0  0  0  0  0  0  0  0  0  0  0  0
   -0.1046   -0.5486   -1.3047 H   0  0  0  0  0  0  0  0  0  0  0  0
   -1.1469   -1.5440   -0.2943 H   0  0  0  0  0  0  0  0  0  0  0  0
   -1.0720    1.5209   -0.2171 H   0  0  0  0  0  0  0  0  0  0  0  0
   -3.4813    1.2871    0.0527 H   0  0  0  0  0  0  0  0  0  0  0  0
   -3.3234   -0.5343   -0.0122 H   0  0  0  0  0  0  0  0  0  0  0  0
  1  2  1  0  0  0  0
  2  3  1  0  0  0  0
  3  4  1  0  0  0  0
  4  5  1  0  0  0  0
  5  6  2  0  0  0  0
  1  7  1  0  0  0  0
  1  8  1  0  0  0  0
  1  9  1  0  0  0  0
  2 10  1  0  0  0  0
  2 11  1  0  0  0  0
  3 12  1  0  0  0  0
  3 13  1  0  0  0  0
  4 14  1  0  0  0  0
  4 15  1  0  0  0  0
  5 16  1  0  0  0  0
  6 17  1  0  0  0  0
  6 18  1  0  0  0  0
M  END
