 xtb: 6.7.1 (edcfbbe)
          04112514133D

 23 22  0     0  0            999 V2000
    2.8908   -0.0624   -0.6616 C   0  0  0  0  0  0  0  0  0  0  0  0
    1.8481   -0.9110    0.0579 C   0  0  0  0  0  0  0  0  0  0  0  0
    0.9515   -0.0790    0.9785 C   0  0  0  0  0  0  0  0  0  0  0  0
   -0.0869    0.7735    0.2335 C   0  0  0  0  0  0  0  0  0  0  0  0
   -1.5123    0.2091    0.2828 C   0  0  0  0  0  0  0  0  0  0  0  0
   -2.4884    1.2114   -0.3326 C   0  0  0  0  0  0  0  0  0  0  0  0
   -1.6229   -1.1317   -0.4388 C   0  0  0  0  0  0  0  0  0  0  0  0
    3.5413    0.4300    0.0581 H   0  0  0  0  0  0  0  0  0  0  0  0
    3.5040   -0.6835   -1.3102 H   0  0  0  0  0  0  0  0  0  0  0  0
    2.4175    0.7036   -1.2710 H   0  0  0  0  0  0  0  0  0  0  0  0
    2.3639   -1.6657    0.6565 H   0  0  0  0  0  0  0  0  0  0  0  0
    1.2369   -1.4341   -0.6786 H   0  0  0  0  0  0  0  0  0  0  0  0
    0.4342   -0.7449    1.6724 H   0  0  0  0  0  0  0  0  0  0  0  0
    1.5938    0.5694    1.5784 H   0  0  0  0  0  0  0  0  0  0  0  0
   -0.1095    1.7742    0.6701 H   0  0  0  0  0  0  0  0  0  0  0  0
    0.2073    0.8845   -0.8115 H   0  0  0  0  0  0  0  0  0  0  0  0
   -1.7874    0.0617    1.3341 H   0  0  0  0  0  0  0  0  0  0  0  0
   -2.4475    2.1623    0.1938 H   0  0  0  0  0  0  0  0  0  0  0  0
   -2.2409    1.3866   -1.3775 H   0  0  0  0  0  0  0  0  0  0  0  0
   -3.5070    0.8343   -0.2802 H   0  0  0  0  0  0  0  0  0  0  0  0
   -2.6497   -1.4903   -0.4108 H   0  0  0  0  0  0  0  0  0  0  0  0
   -0.9901   -1.8807    0.0292 H   0  0  0  0  0  0  0  0  0  0  0  0
   -1.3265   -1.0255   -1.4803 H   0  0  0  0  0  0  0  0  0  0  0  0
  1  2  1  0  0  0  0
  2  3  1  0  0  0  0
  3  4  1  0  0  0  0
  4  5  1  0  0  0  0
  5  6  1  0  0  0  0
  5  7  1  0  0  0  0
  1  8  1  0  0  0  0
  1  9  1  0  0  0  0
  1 10  1  0  0  0  0
  2 11  1  0  0  0  0
  2 12  1  0  0  0  0
  3 13  1  0  0  0  0
  3 14  1  0  0  0  0
  4 15  1  0  0  0  0
  4 16  1  0  0  0  0
  5 17  1  0  0  0  0
  6 18  1  0  0  0  0
  6 19  1  0  0  0  0
  6 20  1  0  0  0  0
  7 21  1  0  0  0  0
  7 22  1  0  0  0  0
  7 23  1  0  0  0  0
M  END
