 xtb: 6.7.1 (edcfbbe)
          04112516093D

 19 18  0     0  0            999 V2000
    2.5165    0.7030   -0.6889 C   0  0  0  0  0  0  0  0  0  0  0  0
    1.7845   -0.5525   -0.2264 C   0  0  0  0  0  0  0  0  0  0  0  0
    0.9603   -0.3394    1.0448 C   0  0  0  0  0  0  0  0  0  0  0  0
   -0.2490    0.5694    0.8287 C   0  0  0  0  0  0  0  0  0  0  0  0
   -1.3243   -0.0615   -0.0220 C   0  0  0  0  0  0  0  0  0  0  0  0
   -1.4235   -1.2623   -0.1812 O   0  0  0  0  0  0  0  0  0  0  0  0
   -2.2784    0.9135   -0.6511 C   0  0  0  0  0  0  0  0  0  0  0  0
    3.1419    1.0921    0.1114 H   0  0  0  0  0  0  0  0  0  0  0  0
    3.1526    0.4720   -1.5398 H   0  0  0  0  0  0  0  0  0  0  0  0
    1.8198    1.4796   -0.9927 H   0  0  0  0  0  0  0  0  0  0  0  0
    2.5202   -1.3356   -0.0306 H   0  0  0  0  0  0  0  0  0  0  0  0
    1.1281   -0.9146   -1.0211 H   0  0  0  0  0  0  0  0  0  0  0  0
    1.5987    0.0874    1.8202 H   0  0  0  0  0  0  0  0  0  0  0  0
    0.6010   -1.3100    1.3938 H   0  0  0  0  0  0  0  0  0  0  0  0
   -0.7152    0.7827    1.7948 H   0  0  0  0  0  0  0  0  0  0  0  0
    0.0460    1.5233    0.3938 H   0  0  0  0  0  0  0  0  0  0  0  0
   -2.5589    1.6855    0.0589 H   0  0  0  0  0  0  0  0  0  0  0  0
   -1.7757    1.3908   -1.4902 H   0  0  0  0  0  0  0  0  0  0  0  0
   -3.1597    0.3962   -1.0202 H   0  0  0  0  0  0  0  0  0  0  0  0
  1  2  1  0  0  0  0
  2  3  1  0  0  0  0
  3  4  1  0  0  0  0
  4  5  1  0  0  0  0
  5  6  2  0  0  0  0
  5  7  1  0  0  0  0
  1  8  1  0  0  0  0
  1  9  1  0  0  0  0
  1 10  1  0  0  0  0
  2 11  1  0  0  0  0
  2 12  1  0  0  0  0
  3 13  1  0  0  0  0
  3 14  1  0  0  0  0
  4 15  1  0  0  0  0
  4 16  1  0  0  0  0
  7 17  1  0  0  0  0
  7 18  1  0  0  0  0
  7 19  1  0  0  0  0
M  END
