 xtb: 6.7.1 (edcfbbe)
          04112516153D

 26 25  0     0  0            999 V2000
    1.2317   -0.3944   -1.6719 C   0  0  0  0  0  0  0  0  0  0  0  0
    1.8675   -0.6253   -0.3128 C   0  0  0  0  0  0  0  0  0  0  0  0
    2.9059   -1.7431   -0.3809 C   0  0  0  0  0  0  0  0  0  0  0  0
    0.9541   -0.8543    0.8438 C   0  0  0  0  0  0  0  0  0  0  0  0
   -0.2831   -0.6883    1.0348 N   0  0  0  0  0  0  0  0  0  0  0  0
   -1.0759   -0.2746   -0.0581 O   0  0  0  0  0  0  0  0  0  0  0  0
   -2.4077   -0.1247    0.2562 C   0  0  0  0  0  0  0  0  0  0  0  0
   -2.8617   -0.2385    1.3732 O   0  0  0  0  0  0  0  0  0  0  0  0
   -3.0834    0.1752   -0.8542 N   0  0  0  0  0  0  0  0  0  0  0  0
   -4.5129    0.3950   -0.8655 C   0  0  0  0  0  0  0  0  0  0  0  0
    2.8141    0.8935    0.2395 S   0  0  0  0  0  0  0  0  0  0  0  0
    1.5436    2.1884    0.2759 C   0  0  0  0  0  0  0  0  0  0  0  0
    2.0120   -0.2084   -2.4063 H   0  0  0  0  0  0  0  0  0  0  0  0
    0.6723   -1.2803   -1.9656 H   0  0  0  0  0  0  0  0  0  0  0  0
    0.5513    0.4516   -1.6582 H   0  0  0  0  0  0  0  0  0  0  0  0
    3.4114   -1.8579    0.5745 H   0  0  0  0  0  0  0  0  0  0  0  0
    3.6498   -1.5071   -1.1371 H   0  0  0  0  0  0  0  0  0  0  0  0
    2.4196   -2.6806   -0.6403 H   0  0  0  0  0  0  0  0  0  0  0  0
    1.4510   -1.1714    1.7531 H   0  0  0  0  0  0  0  0  0  0  0  0
   -2.5819    0.2230   -1.7279 H   0  0  0  0  0  0  0  0  0  0  0  0
   -4.7351    1.3943   -1.2368 H   0  0  0  0  0  0  0  0  0  0  0  0
   -4.8734    0.2976    0.1563 H   0  0  0  0  0  0  0  0  0  0  0  0
   -5.0022   -0.3468   -1.4953 H   0  0  0  0  0  0  0  0  0  0  0  0
    1.2892    2.4887   -0.7356 H   0  0  0  0  0  0  0  0  0  0  0  0
    1.9893    3.0209    0.8100 H   0  0  0  0  0  0  0  0  0  0  0  0
    0.6700    1.8321    0.8139 H   0  0  0  0  0  0  0  0  0  0  0  0
  1  2  1  0  0  0  0
  2  3  1  0  0  0  0
  2  4  1  0  0  0  0
  4  5  2  0  0  0  0
  5  6  1  0  0  0  0
  6  7  1  0  0  0  0
  7  8  2  0  0  0  0
  7  9  4  0  0  0  0
  9 10  1  0  0  0  0
  2 11  1  0  0  0  0
 11 12  1  0  0  0  0
  1 13  1  0  0  0  0
  1 14  1  0  0  0  0
  1 15  1  0  0  0  0
  3 16  1  0  0  0  0
  3 17  1  0  0  0  0
  3 18  1  0  0  0  0
  4 19  1  0  0  0  0
  9 20  1  0  0  0  0
 10 21  1  0  0  0  0
 10 22  1  0  0  0  0
 10 23  1  0  0  0  0
 12 24  1  0  0  0  0
 12 25  1  0  0  0  0
 12 26  1  0  0  0  0
M  END
