 xtb: 6.7.1 (edcfbbe)
          04112516053D

 26 26  0     0  0            999 V2000
   -4.5181   -0.8531    0.6227 C   0  0  0  0  0  0  0  0  0  0  0  0
   -3.0770   -0.3793    0.7645 C   0  0  0  0  0  0  0  0  0  0  0  0
   -2.3921   -0.2310   -0.5999 C   0  0  0  0  0  0  0  0  0  0  0  0
   -0.9763    0.2429   -0.4379 C   0  0  0  0  0  0  0  0  0  0  0  0
   -0.6725    1.5925   -0.4307 C   0  0  0  0  0  0  0  0  0  0  0  0
    0.6324    2.0194   -0.2392 C   0  0  0  0  0  0  0  0  0  0  0  0
    1.6533    1.1064   -0.0489 C   0  0  0  0  0  0  0  0  0  0  0  0
    1.3573   -0.2692   -0.0508 C   0  0  0  0  0  0  0  0  0  0  0  0
    0.0491   -0.6787   -0.2436 C   0  0  0  0  0  0  0  0  0  0  0  0
    2.4255   -1.1036    0.1427 O   0  0  0  0  0  0  0  0  0  0  0  0
    2.1938   -2.4971    0.1500 C   0  0  0  0  0  0  0  0  0  0  0  0
    2.9525    1.4787    0.1411 O   0  0  0  0  0  0  0  0  0  0  0  0
   -4.5546   -1.8193    0.1247 H   0  0  0  0  0  0  0  0  0  0  0  0
   -4.9843   -0.9516    1.5998 H   0  0  0  0  0  0  0  0  0  0  0  0
   -5.0961   -0.1432    0.0354 H   0  0  0  0  0  0  0  0  0  0  0  0
   -2.5131   -1.0910    1.3712 H   0  0  0  0  0  0  0  0  0  0  0  0
   -3.0543    0.5832    1.2797 H   0  0  0  0  0  0  0  0  0  0  0  0
   -2.9536    0.4845   -1.2031 H   0  0  0  0  0  0  0  0  0  0  0  0
   -2.4062   -1.1949   -1.1118 H   0  0  0  0  0  0  0  0  0  0  0  0
   -1.4535    2.3225   -0.5783 H   0  0  0  0  0  0  0  0  0  0  0  0
    0.8585    3.0756   -0.2390 H   0  0  0  0  0  0  0  0  0  0  0  0
   -0.1926   -1.7296   -0.2487 H   0  0  0  0  0  0  0  0  0  0  0  0
    3.1700   -2.9468    0.3169 H   0  0  0  0  0  0  0  0  0  0  0  0
    1.7916   -2.8364   -0.8086 H   0  0  0  0  0  0  0  0  0  0  0  0
    1.5149   -2.7812    0.9589 H   0  0  0  0  0  0  0  0  0  0  0  0
    3.0248    2.4451    0.1193 H   0  0  0  0  0  0  0  0  0  0  0  0
  1  2  1  0  0  0  0
  2  3  1  0  0  0  0
  3  4  1  0  0  0  0
  4  5  4  0  0  0  0
  5  6  4  0  0  0  0
  6  7  4  0  0  0  0
  7  8  4  0  0  0  0
  4  9  4  0  0  0  0
  8  9  4  0  0  0  0
  8 10  1  0  0  0  0
 10 11  1  0  0  0  0
  7 12  1  0  0  0  0
  1 13  1  0  0  0  0
  1 14  1  0  0  0  0
  1 15  1  0  0  0  0
  2 16  1  0  0  0  0
  2 17  1  0  0  0  0
  3 18  1  0  0  0  0
  3 19  1  0  0  0  0
  5 20  1  0  0  0  0
  6 21  1  0  0  0  0
  9 22  1  0  0  0  0
 11 23  1  0  0  0  0
 11 24  1  0  0  0  0
 11 25  1  0  0  0  0
 12 26  1  0  0  0  0
M  END
