 xtb: 6.7.1 (edcfbbe)
          04112514233D

 23 22  0     0  0            999 V2000
    3.0417   -0.7430    0.2999 C   0  0  0  0  0  0  0  0  0  0  0  0
    2.1236    0.4626    0.1066 C   0  0  0  0  0  0  0  0  0  0  0  0
    1.6497    0.5462   -1.3425 C   0  0  0  0  0  0  0  0  0  0  0  0
    0.9535    0.4592    1.1022 C   0  0  0  0  0  0  0  0  0  0  0  0
   -0.0058   -0.7261    1.0045 C   0  0  0  0  0  0  0  0  0  0  0  0
   -0.8118   -0.6950   -0.1810 O   0  0  0  0  0  0  0  0  0  0  0  0
   -1.9040    0.0588   -0.1833 C   0  0  0  0  0  0  0  0  0  0  0  0
   -2.2742    0.7087    0.7735 O   0  0  0  0  0  0  0  0  0  0  0  0
   -2.6175   -0.0142   -1.5007 C   0  0  0  0  0  0  0  0  0  0  0  0
    3.3397   -0.8359    1.3413 H   0  0  0  0  0  0  0  0  0  0  0  0
    3.9377   -0.6265   -0.3047 H   0  0  0  0  0  0  0  0  0  0  0  0
    2.5483   -1.6614   -0.0065 H   0  0  0  0  0  0  0  0  0  0  0  0
    2.7041    1.3669    0.3252 H   0  0  0  0  0  0  0  0  0  0  0  0
    0.9955    1.4047   -1.4818 H   0  0  0  0  0  0  0  0  0  0  0  0
    1.1053   -0.3525   -1.6200 H   0  0  0  0  0  0  0  0  0  0  0  0
    2.5021    0.6533   -2.0093 H   0  0  0  0  0  0  0  0  0  0  0  0
    0.3709    1.3757    0.9787 H   0  0  0  0  0  0  0  0  0  0  0  0
    1.3574    0.4595    2.1159 H   0  0  0  0  0  0  0  0  0  0  0  0
    0.5279   -1.6743    0.9555 H   0  0  0  0  0  0  0  0  0  0  0  0
   -0.6740   -0.7176    1.8719 H   0  0  0  0  0  0  0  0  0  0  0  0
   -2.9901   -1.0251   -1.6445 H   0  0  0  0  0  0  0  0  0  0  0  0
   -1.9190    0.2062   -2.3028 H   0  0  0  0  0  0  0  0  0  0  0  0
   -3.4433    0.6894   -1.5079 H   0  0  0  0  0  0  0  0  0  0  0  0
  1  2  1  0  0  0  0
  2  3  1  0  0  0  0
  2  4  1  0  0  0  0
  4  5  1  0  0  0  0
  5  6  1  0  0  0  0
  6  7  1  0  0  0  0
  7  8  2  0  0  0  0
  7  9  1  0  0  0  0
  1 10  1  0  0  0  0
  1 11  1  0  0  0  0
  1 12  1  0  0  0  0
  2 13  1  0  0  0  0
  3 14  1  0  0  0  0
  3 15  1  0  0  0  0
  3 16  1  0  0  0  0
  4 17  1  0  0  0  0
  4 18  1  0  0  0  0
  5 19  1  0  0  0  0
  5 20  1  0  0  0  0
  9 21  1  0  0  0  0
  9 22  1  0  0  0  0
  9 23  1  0  0  0  0
M  END
