 xtb: 6.7.1 (edcfbbe)
          04112516153D

 26 25  0     0  0            999 V2000
    3.0082   -0.2400   -0.8370 C   0  0  0  0  0  0  0  0  0  0  0  0
    1.6192   -0.4721   -0.2431 C   0  0  0  0  0  0  0  0  0  0  0  0
    1.6979   -1.2870    1.0496 C   0  0  0  0  0  0  0  0  0  0  0  0
    0.8186   -1.2696   -1.2326 C   0  0  0  0  0  0  0  0  0  0  0  0
   -0.3580   -1.2199   -1.6759 N   0  0  0  0  0  0  0  0  0  0  0  0
   -1.2353   -0.2085   -1.2218 O   0  0  0  0  0  0  0  0  0  0  0  0
   -1.7596   -0.3481    0.0340 C   0  0  0  0  0  0  0  0  0  0  0  0
   -1.4623   -1.2527    0.7909 O   0  0  0  0  0  0  0  0  0  0  0  0
   -2.6462    0.6200    0.2534 N   0  0  0  0  0  0  0  0  0  0  0  0
   -3.3044    0.8038    1.5275 C   0  0  0  0  0  0  0  0  0  0  0  0
    0.7938    1.1635    0.0729 S   0  0  0  0  0  0  0  0  0  0  0  0
    2.0421    2.0608    1.0464 C   0  0  0  0  0  0  0  0  0  0  0  0
    2.9434    0.4076   -1.7089 H   0  0  0  0  0  0  0  0  0  0  0  0
    3.6624    0.2175   -0.1004 H   0  0  0  0  0  0  0  0  0  0  0  0
    3.4451   -1.1896   -1.1367 H   0  0  0  0  0  0  0  0  0  0  0  0
    0.6977   -1.4677    1.4405 H   0  0  0  0  0  0  0  0  0  0  0  0
    2.2809   -0.7563    1.7976 H   0  0  0  0  0  0  0  0  0  0  0  0
    2.1737   -2.2449    0.8526 H   0  0  0  0  0  0  0  0  0  0  0  0
    1.3692   -2.0895   -1.6816 H   0  0  0  0  0  0  0  0  0  0  0  0
   -2.7430    1.3334   -0.4531 H   0  0  0  0  0  0  0  0  0  0  0  0
   -3.0805   -0.0614    2.1478 H   0  0  0  0  0  0  0  0  0  0  0  0
   -4.3797    0.8787    1.3782 H   0  0  0  0  0  0  0  0  0  0  0  0
   -2.9367    1.7053    2.0176 H   0  0  0  0  0  0  0  0  0  0  0  0
    2.3489    1.4685    1.9014 H   0  0  0  0  0  0  0  0  0  0  0  0
    1.5326    2.9564    1.3854 H   0  0  0  0  0  0  0  0  0  0  0  0
    2.8863    2.3313    0.4218 H   0  0  0  0  0  0  0  0  0  0  0  0
  1  2  1  0  0  0  0
  2  3  1  0  0  0  0
  2  4  1  0  0  0  0
  4  5  2  0  0  0  0
  5  6  1  0  0  0  0
  6  7  1  0  0  0  0
  7  8  2  0  0  0  0
  7  9  4  0  0  0  0
  9 10  1  0  0  0  0
  2 11  1  0  0  0  0
 11 12  1  0  0  0  0
  1 13  1  0  0  0  0
  1 14  1  0  0  0  0
  1 15  1  0  0  0  0
  3 16  1  0  0  0  0
  3 17  1  0  0  0  0
  3 18  1  0  0  0  0
  4 19  1  0  0  0  0
  9 20  1  0  0  0  0
 10 21  1  0  0  0  0
 10 22  1  0  0  0  0
 10 23  1  0  0  0  0
 12 24  1  0  0  0  0
 12 25  1  0  0  0  0
 12 26  1  0  0  0  0
M  END
