 xtb: 6.7.1 (edcfbbe)
          04112516203D

 17 16  0     0  0            999 V2000
   -3.5108   -0.8043    0.2344 C   0  0  0  0  0  0  0  0  0  0  0  0
   -2.0762   -0.3795   -0.0563 C   0  0  0  0  0  0  0  0  0  0  0  0
   -1.9251    1.1396    0.0029 C   0  0  0  0  0  0  0  0  0  0  0  0
   -0.5654    1.6572   -0.4693 C   0  0  0  0  0  0  0  0  0  0  0  0
    0.6023    1.2648    0.4208 C   0  0  0  0  0  0  0  0  0  0  0  0
    1.3631   -0.5063   -0.0177 Br  0  0  0  0  0  0  0  0  0  0  0  0
   -4.1919   -0.3793   -0.4994 H   0  0  0  0  0  0  0  0  0  0  0  0
   -3.8158   -0.4651    1.2220 H   0  0  0  0  0  0  0  0  0  0  0  0
   -3.6003   -1.8870    0.2004 H   0  0  0  0  0  0  0  0  0  0  0  0
   -1.4162   -0.8529    0.6719 H   0  0  0  0  0  0  0  0  0  0  0  0
   -1.7863   -0.7358   -1.0476 H   0  0  0  0  0  0  0  0  0  0  0  0
   -2.6915    1.5892   -0.6322 H   0  0  0  0  0  0  0  0  0  0  0  0
   -2.1046    1.4803    1.0255 H   0  0  0  0  0  0  0  0  0  0  0  0
   -0.3789    1.3250   -1.4927 H   0  0  0  0  0  0  0  0  0  0  0  0
   -0.6020    2.7495   -0.4796 H   0  0  0  0  0  0  0  0  0  0  0  0
    0.3148    1.2077    1.4690 H   0  0  0  0  0  0  0  0  0  0  0  0
    1.4401    1.9492    0.3026 H   0  0  0  0  0  0  0  0  0  0  0  0
  1  2  1  0  0  0  0
  2  3  1  0  0  0  0
  3  4  1  0  0  0  0
  4  5  1  0  0  0  0
  5  6  1  0  0  0  0
  1  7  1  0  0  0  0
  1  8  1  0  0  0  0
  1  9  1  0  0  0  0
  2 10  1  0  0  0  0
  2 11  1  0  0  0  0
  3 12  1  0  0  0  0
  3 13  1  0  0  0  0
  4 14  1  0  0  0  0
  4 15  1  0  0  0  0
  5 16  1  0  0  0  0
  5 17  1  0  0  0  0
M  END
