 xtb: 6.7.1 (edcfbbe)
          04112514343D

 17 16  0     0  0            999 V2000
   -2.6948   -1.4918    0.0426 C   0  0  0  0  0  0  0  0  0  0  0  0
   -1.7851   -0.3045   -0.2603 C   0  0  0  0  0  0  0  0  0  0  0  0
   -2.2029    0.9278    0.5373 C   0  0  0  0  0  0  0  0  0  0  0  0
   -0.3396   -0.6804    0.0639 C   0  0  0  0  0  0  0  0  0  0  0  0
    0.5010    0.3776   -0.4088 O   0  0  0  0  0  0  0  0  0  0  0  0
    1.8232    0.2517   -0.1864 N   0  0  0  0  0  0  0  0  0  0  0  0
    2.2031   -0.7270    0.3830 O   0  0  0  0  0  0  0  0  0  0  0  0
    2.4791    1.1601   -0.5975 O   0  0  0  0  0  0  0  0  0  0  0  0
   -2.6338   -1.7570    1.0949 H   0  0  0  0  0  0  0  0  0  0  0  0
   -2.4134   -2.3579   -0.5500 H   0  0  0  0  0  0  0  0  0  0  0  0
   -3.7244   -1.2360   -0.1887 H   0  0  0  0  0  0  0  0  0  0  0  0
   -1.8353   -0.0698   -1.3271 H   0  0  0  0  0  0  0  0  0  0  0  0
   -3.2121    1.2244    0.2671 H   0  0  0  0  0  0  0  0  0  0  0  0
   -1.5322    1.7576    0.3304 H   0  0  0  0  0  0  0  0  0  0  0  0
   -2.1796    0.7157    1.6036 H   0  0  0  0  0  0  0  0  0  0  0  0
   -0.1948   -0.7982    1.1423 H   0  0  0  0  0  0  0  0  0  0  0  0
   -0.0493   -1.6114   -0.4323 H   0  0  0  0  0  0  0  0  0  0  0  0
  1  2  1  0  0  0  0
  2  3  1  0  0  0  0
  2  4  1  0  0  0  0
  4  5  1  0  0  0  0
  5  6  1  0  0  0  0
  6  7  4  0  0  0  0
  6  8  4  0  0  0  0
  1  9  1  0  0  0  0
  1 10  1  0  0  0  0
  1 11  1  0  0  0  0
  2 12  1  0  0  0  0
  3 13  1  0  0  0  0
  3 14  1  0  0  0  0
  3 15  1  0  0  0  0
  4 16  1  0  0  0  0
  4 17  1  0  0  0  0
M  END
