 xtb: 6.7.1 (edcfbbe)
          04112516293D

 20 19  0     0  0            999 V2000
   -3.2358   -0.7822   -0.5033 C   0  0  0  0  0  0  0  0  0  0  0  0
   -1.8043   -0.2604   -0.5095 C   0  0  0  0  0  0  0  0  0  0  0  0
   -1.5371    0.6584    0.6816 C   0  0  0  0  0  0  0  0  0  0  0  0
   -0.1288    1.2449    0.6615 C   0  0  0  0  0  0  0  0  0  0  0  0
    0.8505    0.2155    0.8620 O   0  0  0  0  0  0  0  0  0  0  0  0
    1.6303   -0.1487   -0.1483 C   0  0  0  0  0  0  0  0  0  0  0  0
    1.5918    0.3597   -1.2504 O   0  0  0  0  0  0  0  0  0  0  0  0
    2.5635   -1.2531    0.2506 C   0  0  0  0  0  0  0  0  0  0  0  0
   -3.4045   -1.4373   -1.3540 H   0  0  0  0  0  0  0  0  0  0  0  0
   -3.4325   -1.3422    0.4077 H   0  0  0  0  0  0  0  0  0  0  0  0
   -3.9405    0.0437   -0.5591 H   0  0  0  0  0  0  0  0  0  0  0  0
   -1.1101   -1.1039   -0.4803 H   0  0  0  0  0  0  0  0  0  0  0  0
   -1.6147    0.2859   -1.4367 H   0  0  0  0  0  0  0  0  0  0  0  0
   -2.2441    1.4884    0.6693 H   0  0  0  0  0  0  0  0  0  0  0  0
   -1.6729    0.1020    1.6104 H   0  0  0  0  0  0  0  0  0  0  0  0
    0.0760    1.7399   -0.2930 H   0  0  0  0  0  0  0  0  0  0  0  0
    0.0091    1.9485    1.4850 H   0  0  0  0  0  0  0  0  0  0  0  0
    2.3902   -2.1114   -0.3936 H   0  0  0  0  0  0  0  0  0  0  0  0
    2.4012   -1.5183    1.2895 H   0  0  0  0  0  0  0  0  0  0  0  0
    3.5876   -0.9235    0.0962 H   0  0  0  0  0  0  0  0  0  0  0  0
  1  2  1  0  0  0  0
  2  3  1  0  0  0  0
  3  4  1  0  0  0  0
  4  5  1  0  0  0  0
  5  6  1  0  0  0  0
  6  7  2  0  0  0  0
  6  8  1  0  0  0  0
  1  9  1  0  0  0  0
  1 10  1  0  0  0  0
  1 11  1  0  0  0  0
  2 12  1  0  0  0  0
  2 13  1  0  0  0  0
  3 14  1  0  0  0  0
  3 15  1  0  0  0  0
  4 16  1  0  0  0  0
  4 17  1  0  0  0  0
  8 18  1  0  0  0  0
  8 19  1  0  0  0  0
  8 20  1  0  0  0  0
M  END
