 xtb: 6.7.1 (edcfbbe)
          04112514133D

 23 22  0     0  0            999 V2000
    2.9674    0.0473   -0.5787 C   0  0  0  0  0  0  0  0  0  0  0  0
    1.9606   -0.9081    0.0520 C   0  0  0  0  0  0  0  0  0  0  0  0
    0.9252   -0.1827    0.9131 C   0  0  0  0  0  0  0  0  0  0  0  0
   -0.0702    0.6569    0.0949 C   0  0  0  0  0  0  0  0  0  0  0  0
   -1.5325    0.2367    0.2885 C   0  0  0  0  0  0  0  0  0  0  0  0
   -2.4662    1.2812   -0.3213 C   0  0  0  0  0  0  0  0  0  0  0  0
   -1.8003   -1.1292   -0.3396 C   0  0  0  0  0  0  0  0  0  0  0  0
    3.5117    0.5863    0.1937 H   0  0  0  0  0  0  0  0  0  0  0  0
    3.6843   -0.5013   -1.1851 H   0  0  0  0  0  0  0  0  0  0  0  0
    2.4680    0.7749   -1.2135 H   0  0  0  0  0  0  0  0  0  0  0  0
    2.4990   -1.6258    0.6757 H   0  0  0  0  0  0  0  0  0  0  0  0
    1.4487   -1.4703   -0.7319 H   0  0  0  0  0  0  0  0  0  0  0  0
    0.3781   -0.9239    1.4988 H   0  0  0  0  0  0  0  0  0  0  0  0
    1.4533    0.4560    1.6240 H   0  0  0  0  0  0  0  0  0  0  0  0
    0.0259    1.7088    0.3699 H   0  0  0  0  0  0  0  0  0  0  0  0
    0.1665    0.5785   -0.9678 H   0  0  0  0  0  0  0  0  0  0  0  0
   -1.7374    0.1764    1.3638 H   0  0  0  0  0  0  0  0  0  0  0  0
   -2.3219    2.2500    0.1517 H   0  0  0  0  0  0  0  0  0  0  0  0
   -2.2707    1.3865   -1.3865 H   0  0  0  0  0  0  0  0  0  0  0  0
   -3.5050    0.9873   -0.1908 H   0  0  0  0  0  0  0  0  0  0  0  0
   -1.1450   -1.8885    0.0791 H   0  0  0  0  0  0  0  0  0  0  0  0
   -1.6338   -1.0866   -1.4142 H   0  0  0  0  0  0  0  0  0  0  0  0
   -2.8299   -1.4331   -0.1643 H   0  0  0  0  0  0  0  0  0  0  0  0
  1  2  1  0  0  0  0
  2  3  1  0  0  0  0
  3  4  1  0  0  0  0
  4  5  1  0  0  0  0
  5  6  1  0  0  0  0
  5  7  1  0  0  0  0
  1  8  1  0  0  0  0
  1  9  1  0  0  0  0
  1 10  1  0  0  0  0
  2 11  1  0  0  0  0
  2 12  1  0  0  0  0
  3 13  1  0  0  0  0
  3 14  1  0  0  0  0
  4 15  1  0  0  0  0
  4 16  1  0  0  0  0
  5 17  1  0  0  0  0
  6 18  1  0  0  0  0
  6 19  1  0  0  0  0
  6 20  1  0  0  0  0
  7 21  1  0  0  0  0
  7 22  1  0  0  0  0
  7 23  1  0  0  0  0
M  END
