 xtb: 6.7.1 (edcfbbe)
          04112518233D

 26 25  0     0  0            999 V2000
    1.1584   -0.4827   -1.6614 C   0  0  0  0  0  0  0  0  0  0  0  0
    1.8232   -0.6704   -0.3102 C   0  0  0  0  0  0  0  0  0  0  0  0
    3.0365   -1.5907   -0.4211 C   0  0  0  0  0  0  0  0  0  0  0  0
    0.9679   -1.0891    0.8350 C   0  0  0  0  0  0  0  0  0  0  0  0
   -0.2779   -1.1628    1.0291 N   0  0  0  0  0  0  0  0  0  0  0  0
   -1.1507   -0.9530   -0.0782 O   0  0  0  0  0  0  0  0  0  0  0  0
   -2.1159   -0.0101    0.1310 C   0  0  0  0  0  0  0  0  0  0  0  0
   -2.0348    0.8504    0.9880 O   0  0  0  0  0  0  0  0  0  0  0  0
   -3.0857   -0.1451   -0.7726 N   0  0  0  0  0  0  0  0  0  0  0  0
   -4.2106    0.7594   -0.8600 C   0  0  0  0  0  0  0  0  0  0  0  0
    2.4938    0.9568    0.3371 S   0  0  0  0  0  0  0  0  0  0  0  0
    1.0568    2.0603    0.3457 C   0  0  0  0  0  0  0  0  0  0  0  0
    0.3545    0.2473   -1.6205 H   0  0  0  0  0  0  0  0  0  0  0  0
    1.8999   -0.1441   -2.3814 H   0  0  0  0  0  0  0  0  0  0  0  0
    0.7430   -1.4307   -1.9971 H   0  0  0  0  0  0  0  0  0  0  0  0
    3.5522   -1.6632    0.5327 H   0  0  0  0  0  0  0  0  0  0  0  0
    3.7300   -1.1938   -1.1573 H   0  0  0  0  0  0  0  0  0  0  0  0
    2.7166   -2.5829   -0.7302 H   0  0  0  0  0  0  0  0  0  0  0  0
    1.5180   -1.3264    1.7386 H   0  0  0  0  0  0  0  0  0  0  0  0
   -3.0329   -0.9192   -1.4174 H   0  0  0  0  0  0  0  0  0  0  0  0
   -5.1406    0.2167   -0.6971 H   0  0  0  0  0  0  0  0  0  0  0  0
   -4.2325    1.2377   -1.8383 H   0  0  0  0  0  0  0  0  0  0  0  0
   -4.0926    1.5157   -0.0868 H   0  0  0  0  0  0  0  0  0  0  0  0
    1.3592    2.9257    0.9262 H   0  0  0  0  0  0  0  0  0  0  0  0
    0.2070    1.5826    0.8275 H   0  0  0  0  0  0  0  0  0  0  0  0
    0.8142    2.3627   -0.6687 H   0  0  0  0  0  0  0  0  0  0  0  0
  1  2  1  0  0  0  0
  2  3  1  0  0  0  0
  2  4  1  0  0  0  0
  4  5  2  0  0  0  0
  5  6  1  0  0  0  0
  6  7  1  0  0  0  0
  7  8  2  0  0  0  0
  7  9  4  0  0  0  0
  9 10  1  0  0  0  0
  2 11  1  0  0  0  0
 11 12  1  0  0  0  0
  1 13  1  0  0  0  0
  1 14  1  0  0  0  0
  1 15  1  0  0  0  0
  3 16  1  0  0  0  0
  3 17  1  0  0  0  0
  3 18  1  0  0  0  0
  4 19  1  0  0  0  0
  9 20  1  0  0  0  0
 10 21  1  0  0  0  0
 10 22  1  0  0  0  0
 10 23  1  0  0  0  0
 12 24  1  0  0  0  0
 12 25  1  0  0  0  0
 12 26  1  0  0  0  0
M  END
