 xtb: 6.7.1 (edcfbbe)
          04112516293D

 20 19  0     0  0            999 V2000
   -3.6674    0.0296   -0.7991 C   0  0  0  0  0  0  0  0  0  0  0  0
   -2.6380   -0.2141    0.2980 C   0  0  0  0  0  0  0  0  0  0  0  0
   -1.2568    0.2925   -0.1102 C   0  0  0  0  0  0  0  0  0  0  0  0
   -0.2258    0.0447    0.9870 C   0  0  0  0  0  0  0  0  0  0  0  0
    1.0469    0.6065    0.6405 O   0  0  0  0  0  0  0  0  0  0  0  0
    1.8835   -0.1208   -0.0935 C   0  0  0  0  0  0  0  0  0  0  0  0
    1.6413   -1.2517   -0.4620 O   0  0  0  0  0  0  0  0  0  0  0  0
    3.1431    0.6315   -0.3994 C   0  0  0  0  0  0  0  0  0  0  0  0
   -4.6429   -0.3385   -0.4929 H   0  0  0  0  0  0  0  0  0  0  0  0
   -3.7512    1.0922   -1.0136 H   0  0  0  0  0  0  0  0  0  0  0  0
   -3.3774   -0.4829   -1.7133 H   0  0  0  0  0  0  0  0  0  0  0  0
   -2.9519    0.2934    1.2118 H   0  0  0  0  0  0  0  0  0  0  0  0
   -2.5791   -1.2829    0.5121 H   0  0  0  0  0  0  0  0  0  0  0  0
   -0.9303   -0.2180   -1.0195 H   0  0  0  0  0  0  0  0  0  0  0  0
   -1.2994    1.3635   -0.3181 H   0  0  0  0  0  0  0  0  0  0  0  0
   -0.5100    0.5446    1.9138 H   0  0  0  0  0  0  0  0  0  0  0  0
   -0.1028   -1.0292    1.1594 H   0  0  0  0  0  0  0  0  0  0  0  0
    3.0801    1.0053   -1.4192 H   0  0  0  0  0  0  0  0  0  0  0  0
    3.9923   -0.0423   -0.3377 H   0  0  0  0  0  0  0  0  0  0  0  0
    3.2513    1.4659    0.2846 H   0  0  0  0  0  0  0  0  0  0  0  0
  1  2  1  0  0  0  0
  2  3  1  0  0  0  0
  3  4  1  0  0  0  0
  4  5  1  0  0  0  0
  5  6  1  0  0  0  0
  6  7  2  0  0  0  0
  6  8  1  0  0  0  0
  1  9  1  0  0  0  0
  1 10  1  0  0  0  0
  1 11  1  0  0  0  0
  2 12  1  0  0  0  0
  2 13  1  0  0  0  0
  3 14  1  0  0  0  0
  3 15  1  0  0  0  0
  4 16  1  0  0  0  0
  4 17  1  0  0  0  0
  8 18  1  0  0  0  0
  8 19  1  0  0  0  0
  8 20  1  0  0  0  0
M  END
