 xtb: 6.7.1 (edcfbbe)
          04112516113D

 17 16  0     0  0            999 V2000
   -3.0340   -0.3386   -0.2492 C   0  0  0  0  0  0  0  0  0  0  0  0
   -1.6483   -0.2494    0.3791 C   0  0  0  0  0  0  0  0  0  0  0  0
   -0.8662    0.9485   -0.1557 C   0  0  0  0  0  0  0  0  0  0  0  0
    0.5292    1.0508    0.4725 C   0  0  0  0  0  0  0  0  0  0  0  0
    1.3881   -0.1213    0.0828 C   0  0  0  0  0  0  0  0  0  0  0  0
    1.8556   -0.9283    0.8597 O   0  0  0  0  0  0  0  0  0  0  0  0
    1.5962   -0.1914   -1.2220 O   0  0  0  0  0  0  0  0  0  0  0  0
   -2.9563   -0.4464   -1.3285 H   0  0  0  0  0  0  0  0  0  0  0  0
   -3.5763   -1.1945    0.1441 H   0  0  0  0  0  0  0  0  0  0  0  0
   -3.6062    0.5605   -0.0339 H   0  0  0  0  0  0  0  0  0  0  0  0
   -1.0933   -1.1687    0.1745 H   0  0  0  0  0  0  0  0  0  0  0  0
   -1.7441   -0.1628    1.4636 H   0  0  0  0  0  0  0  0  0  0  0  0
   -0.7634    0.8655   -1.2389 H   0  0  0  0  0  0  0  0  0  0  0  0
   -1.4155    1.8646    0.0653 H   0  0  0  0  0  0  0  0  0  0  0  0
    0.4612    1.0819    1.5597 H   0  0  0  0  0  0  0  0  0  0  0  0
    1.0203    1.9552    0.1112 H   0  0  0  0  0  0  0  0  0  0  0  0
    2.1510   -0.9536   -1.4764 H   0  0  0  0  0  0  0  0  0  0  0  0
  1  2  1  0  0  0  0
  2  3  1  0  0  0  0
  3  4  1  0  0  0  0
  4  5  1  0  0  0  0
  5  6  2  0  0  0  0
  5  7  1  0  0  0  0
  1  8  1  0  0  0  0
  1  9  1  0  0  0  0
  1 10  1  0  0  0  0
  2 11  1  0  0  0  0
  2 12  1  0  0  0  0
  3 13  1  0  0  0  0
  3 14  1  0  0  0  0
  4 15  1  0  0  0  0
  4 16  1  0  0  0  0
  7 17  1  0  0  0  0
M  END
