 xtb: 6.7.1 (edcfbbe)
          04112514373D

 14 13  0     0  0            999 V2000
    0.3844    0.1805   -0.2879 C   0  0  0  0  0  0  0  0  0  0  0  0
   -0.7034    1.2442   -0.1272 C   0  0  0  0  0  0  0  0  0  0  0  0
   -2.0334    0.7949   -0.7039 C   0  0  0  0  0  0  0  0  0  0  0  0
   -2.7071   -0.5990    0.2206 Cl  0  0  0  0  0  0  0  0  0  0  0  0
    1.7007    0.6675    0.2916 C   0  0  0  0  0  0  0  0  0  0  0  0
    2.9736   -0.5912    0.1073 Cl  0  0  0  0  0  0  0  0  0  0  0  0
    0.5172   -0.0531   -1.3453 H   0  0  0  0  0  0  0  0  0  0  0  0
    0.0778   -0.7335    0.2229 H   0  0  0  0  0  0  0  0  0  0  0  0
   -0.4070    2.1525   -0.6539 H   0  0  0  0  0  0  0  0  0  0  0  0
   -0.8274    1.4859    0.9289 H   0  0  0  0  0  0  0  0  0  0  0  0
   -2.7810    1.5826   -0.6401 H   0  0  0  0  0  0  0  0  0  0  0  0
   -1.9308    0.4518   -1.7315 H   0  0  0  0  0  0  0  0  0  0  0  0
    2.0680    1.5499   -0.2291 H   0  0  0  0  0  0  0  0  0  0  0  0
    1.6218    0.8661    1.3589 H   0  0  0  0  0  0  0  0  0  0  0  0
  1  2  1  0  0  0  0
  2  3  1  0  0  0  0
  3  4  1  0  0  0  0
  1  5  1  0  0  0  0
  5  6  1  0  0  0  0
  1  7  1  0  0  0  0
  1  8  1  0  0  0  0
  2  9  1  0  0  0  0
  2 10  1  0  0  0  0
  3 11  1  0  0  0  0
  3 12  1  0  0  0  0
  5 13  1  0  0  0  0
  5 14  1  0  0  0  0
M  END
