 xtb: 6.7.1 (edcfbbe)
          04112516353D

 19 18  0     0  0            999 V2000
    2.5180    0.6947   -0.6922 C   0  0  0  0  0  0  0  0  0  0  0  0
    1.7840   -0.5578   -0.2251 C   0  0  0  0  0  0  0  0  0  0  0  0
    0.9598   -0.3390    1.0451 C   0  0  0  0  0  0  0  0  0  0  0  0
   -0.2475    0.5719    0.8267 C   0  0  0  0  0  0  0  0  0  0  0  0
   -1.3228   -0.0562   -0.0259 C   0  0  0  0  0  0  0  0  0  0  0  0
   -1.4193   -1.2562   -0.1929 O   0  0  0  0  0  0  0  0  0  0  0  0
   -2.2809    0.9205   -0.6461 C   0  0  0  0  0  0  0  0  0  0  0  0
    3.1444    1.0856    0.1064 H   0  0  0  0  0  0  0  0  0  0  0  0
    3.1534    0.4596   -1.5425 H   0  0  0  0  0  0  0  0  0  0  0  0
    1.8226    1.4715   -0.9986 H   0  0  0  0  0  0  0  0  0  0  0  0
    2.5184   -1.3414   -0.0261 H   0  0  0  0  0  0  0  0  0  0  0  0
    1.1273   -0.9219   -1.0186 H   0  0  0  0  0  0  0  0  0  0  0  0
    1.5989    0.0887    1.8194 H   0  0  0  0  0  0  0  0  0  0  0  0
    0.5985   -1.3079    1.3969 H   0  0  0  0  0  0  0  0  0  0  0  0
   -0.7146    0.7864    1.7920 H   0  0  0  0  0  0  0  0  0  0  0  0
    0.0502    1.5252    0.3924 H   0  0  0  0  0  0  0  0  0  0  0  0
   -2.5680    1.6819    0.0727 H   0  0  0  0  0  0  0  0  0  0  0  0
   -1.7793    1.4116   -1.4779 H   0  0  0  0  0  0  0  0  0  0  0  0
   -3.1582    0.4025   -1.0235 H   0  0  0  0  0  0  0  0  0  0  0  0
  1  2  1  0  0  0  0
  2  3  1  0  0  0  0
  3  4  1  0  0  0  0
  4  5  1  0  0  0  0
  5  6  2  0  0  0  0
  5  7  1  0  0  0  0
  1  8  1  0  0  0  0
  1  9  1  0  0  0  0
  1 10  1  0  0  0  0
  2 11  1  0  0  0  0
  2 12  1  0  0  0  0
  3 13  1  0  0  0  0
  3 14  1  0  0  0  0
  4 15  1  0  0  0  0
  4 16  1  0  0  0  0
  7 17  1  0  0  0  0
  7 18  1  0  0  0  0
  7 19  1  0  0  0  0
M  END
