 xtb: 6.7.1 (edcfbbe)
          04112516153D

 26 25  0     0  0            999 V2000
    1.8813    0.1250   -1.7445 C   0  0  0  0  0  0  0  0  0  0  0  0
    1.9963   -0.5707   -0.3929 C   0  0  0  0  0  0  0  0  0  0  0  0
    3.3793   -1.1917   -0.2222 C   0  0  0  0  0  0  0  0  0  0  0  0
    0.9360   -1.6247   -0.2677 C   0  0  0  0  0  0  0  0  0  0  0  0
   -0.3176   -1.5305   -0.1689 N   0  0  0  0  0  0  0  0  0  0  0  0
   -0.8501   -0.2259   -0.1309 O   0  0  0  0  0  0  0  0  0  0  0  0
   -2.2247   -0.1972   -0.0437 C   0  0  0  0  0  0  0  0  0  0  0  0
   -2.9338   -1.1656   -0.2017 O   0  0  0  0  0  0  0  0  0  0  0  0
   -2.6246    1.0519    0.2017 N   0  0  0  0  0  0  0  0  0  0  0  0
   -4.0178    1.4121    0.3479 C   0  0  0  0  0  0  0  0  0  0  0  0
    1.7856    0.6077    1.0515 S   0  0  0  0  0  0  0  0  0  0  0  0
    1.2246    2.1782    0.3294 C   0  0  0  0  0  0  0  0  0  0  0  0
    0.8866    0.5347   -1.8999 H   0  0  0  0  0  0  0  0  0  0  0  0
    2.6192    0.9180   -1.8280 H   0  0  0  0  0  0  0  0  0  0  0  0
    2.0716   -0.6079   -2.5266 H   0  0  0  0  0  0  0  0  0  0  0  0
    3.4626   -1.6635    0.7543 H   0  0  0  0  0  0  0  0  0  0  0  0
    4.1417   -0.4204   -0.2952 H   0  0  0  0  0  0  0  0  0  0  0  0
    3.5551   -1.9377   -0.9938 H   0  0  0  0  0  0  0  0  0  0  0  0
    1.2634   -2.6560   -0.2560 H   0  0  0  0  0  0  0  0  0  0  0  0
   -1.9278    1.7600    0.3763 H   0  0  0  0  0  0  0  0  0  0  0  0
   -4.2748    2.1971   -0.3614 H   0  0  0  0  0  0  0  0  0  0  0  0
   -4.2145    1.7560    1.3626 H   0  0  0  0  0  0  0  0  0  0  0  0
   -4.6145    0.5256    0.1443 H   0  0  0  0  0  0  0  0  0  0  0  0
    2.0115    2.6147   -0.2755 H   0  0  0  0  0  0  0  0  0  0  0  0
    1.0167    2.8144    1.1834 H   0  0  0  0  0  0  0  0  0  0  0  0
    0.3231    2.0122   -0.2497 H   0  0  0  0  0  0  0  0  0  0  0  0
  1  2  1  0  0  0  0
  2  3  1  0  0  0  0
  2  4  1  0  0  0  0
  4  5  2  0  0  0  0
  5  6  1  0  0  0  0
  6  7  1  0  0  0  0
  7  8  2  0  0  0  0
  7  9  4  0  0  0  0
  9 10  1  0  0  0  0
  2 11  1  0  0  0  0
 11 12  1  0  0  0  0
  1 13  1  0  0  0  0
  1 14  1  0  0  0  0
  1 15  1  0  0  0  0
  3 16  1  0  0  0  0
  3 17  1  0  0  0  0
  3 18  1  0  0  0  0
  4 19  1  0  0  0  0
  9 20  1  0  0  0  0
 10 21  1  0  0  0  0
 10 22  1  0  0  0  0
 10 23  1  0  0  0  0
 12 24  1  0  0  0  0
 12 25  1  0  0  0  0
 12 26  1  0  0  0  0
M  END
