 xtb: 6.7.1 (edcfbbe)
          04112516423D

 26 25  0     0  0            999 V2000
    3.4033   -0.4333   -0.8210 C   0  0  0  0  0  0  0  0  0  0  0  0
    1.9687   -0.5649   -0.3268 C   0  0  0  0  0  0  0  0  0  0  0  0
    1.7379   -1.9384    0.3066 C   0  0  0  0  0  0  0  0  0  0  0  0
    0.9942   -0.3245   -1.4355 C   0  0  0  0  0  0  0  0  0  0  0  0
   -0.2643   -0.2283   -1.4172 N   0  0  0  0  0  0  0  0  0  0  0  0
   -0.8786   -0.3637   -0.1586 O   0  0  0  0  0  0  0  0  0  0  0  0
   -2.2202   -0.0574   -0.1481 C   0  0  0  0  0  0  0  0  0  0  0  0
   -2.8393    0.3218   -1.1182 O   0  0  0  0  0  0  0  0  0  0  0  0
   -2.6929   -0.2420    1.0843 N   0  0  0  0  0  0  0  0  0  0  0  0
   -4.0703    0.0131    1.4426 C   0  0  0  0  0  0  0  0  0  0  0  0
    1.6683    0.6790    1.0326 S   0  0  0  0  0  0  0  0  0  0  0  0
    1.5853    2.2473    0.1236 C   0  0  0  0  0  0  0  0  0  0  0  0
    3.6115   -1.2046   -1.5591 H   0  0  0  0  0  0  0  0  0  0  0  0
    3.5743    0.5380   -1.2793 H   0  0  0  0  0  0  0  0  0  0  0  0
    4.0903   -0.5500    0.0132 H   0  0  0  0  0  0  0  0  0  0  0  0
    1.9405   -2.7181   -0.4239 H   0  0  0  0  0  0  0  0  0  0  0  0
    0.7110   -2.0324    0.6494 H   0  0  0  0  0  0  0  0  0  0  0  0
    2.4027   -2.0618    1.1575 H   0  0  0  0  0  0  0  0  0  0  0  0
    1.3967   -0.1992   -2.4324 H   0  0  0  0  0  0  0  0  0  0  0  0
   -2.0503   -0.5317    1.8063 H   0  0  0  0  0  0  0  0  0  0  0  0
   -4.5962    0.3284    0.5439 H   0  0  0  0  0  0  0  0  0  0  0  0
   -4.1246    0.8018    2.1918 H   0  0  0  0  0  0  0  0  0  0  0  0
   -4.5280   -0.8945    1.8333 H   0  0  0  0  0  0  0  0  0  0  0  0
    1.4677    3.0166    0.8794 H   0  0  0  0  0  0  0  0  0  0  0  0
    0.7262    2.2454   -0.5420 H   0  0  0  0  0  0  0  0  0  0  0  0
    2.5056    2.4076   -0.4284 H   0  0  0  0  0  0  0  0  0  0  0  0
  1  2  1  0  0  0  0
  2  3  1  0  0  0  0
  2  4  1  0  0  0  0
  4  5  2  0  0  0  0
  5  6  1  0  0  0  0
  6  7  1  0  0  0  0
  7  8  2  0  0  0  0
  7  9  4  0  0  0  0
  9 10  1  0  0  0  0
  2 11  1  0  0  0  0
 11 12  1  0  0  0  0
  1 13  1  0  0  0  0
  1 14  1  0  0  0  0
  1 15  1  0  0  0  0
  3 16  1  0  0  0  0
  3 17  1  0  0  0  0
  3 18  1  0  0  0  0
  4 19  1  0  0  0  0
  9 20  1  0  0  0  0
 10 21  1  0  0  0  0
 10 22  1  0  0  0  0
 10 23  1  0  0  0  0
 12 24  1  0  0  0  0
 12 25  1  0  0  0  0
 12 26  1  0  0  0  0
M  END
