 xtb: 6.7.1 (edcfbbe)
          04112514233D

 23 22  0     0  0            999 V2000
    1.6643    1.3954   -0.5376 C   0  0  0  0  0  0  0  0  0  0  0  0
    2.1638   -0.0424   -0.4244 C   0  0  0  0  0  0  0  0  0  0  0  0
    3.6357   -0.0547   -0.0137 C   0  0  0  0  0  0  0  0  0  0  0  0
    1.3419   -0.8534    0.5850 C   0  0  0  0  0  0  0  0  0  0  0  0
   -0.0985   -1.1083    0.1605 C   0  0  0  0  0  0  0  0  0  0  0  0
   -0.8992    0.0454    0.4562 O   0  0  0  0  0  0  0  0  0  0  0  0
   -2.1484    0.0632    0.0139 C   0  0  0  0  0  0  0  0  0  0  0  0
   -2.6381   -0.8464   -0.6268 O   0  0  0  0  0  0  0  0  0  0  0  0
   -2.8575    1.3293    0.3906 C   0  0  0  0  0  0  0  0  0  0  0  0
    2.2745    1.9515   -1.2455 H   0  0  0  0  0  0  0  0  0  0  0  0
    1.7190    1.8903    0.4291 H   0  0  0  0  0  0  0  0  0  0  0  0
    0.6334    1.4246   -0.8785 H   0  0  0  0  0  0  0  0  0  0  0  0
    2.0733   -0.5229   -1.4054 H   0  0  0  0  0  0  0  0  0  0  0  0
    4.0148   -1.0725    0.0327 H   0  0  0  0  0  0  0  0  0  0  0  0
    3.7586    0.4045    0.9642 H   0  0  0  0  0  0  0  0  0  0  0  0
    4.2335    0.5013   -0.7313 H   0  0  0  0  0  0  0  0  0  0  0  0
    1.3294   -0.3372    1.5458 H   0  0  0  0  0  0  0  0  0  0  0  0
    1.8180   -1.8245    0.7246 H   0  0  0  0  0  0  0  0  0  0  0  0
   -0.1761   -1.3247   -0.9105 H   0  0  0  0  0  0  0  0  0  0  0  0
   -0.5234   -1.9569    0.7072 H   0  0  0  0  0  0  0  0  0  0  0  0
   -3.0431    1.9071   -0.5118 H   0  0  0  0  0  0  0  0  0  0  0  0
   -2.2489    1.9031    1.0805 H   0  0  0  0  0  0  0  0  0  0  0  0
   -3.8189    1.0834    0.8324 H   0  0  0  0  0  0  0  0  0  0  0  0
  1  2  1  0  0  0  0
  2  3  1  0  0  0  0
  2  4  1  0  0  0  0
  4  5  1  0  0  0  0
  5  6  1  0  0  0  0
  6  7  1  0  0  0  0
  7  8  2  0  0  0  0
  7  9  1  0  0  0  0
  1 10  1  0  0  0  0
  1 11  1  0  0  0  0
  1 12  1  0  0  0  0
  2 13  1  0  0  0  0
  3 14  1  0  0  0  0
  3 15  1  0  0  0  0
  3 16  1  0  0  0  0
  4 17  1  0  0  0  0
  4 18  1  0  0  0  0
  5 19  1  0  0  0  0
  5 20  1  0  0  0  0
  9 21  1  0  0  0  0
  9 22  1  0  0  0  0
  9 23  1  0  0  0  0
M  END
