 xtb: 6.7.1 (edcfbbe)
          04112516153D

 26 25  0     0  0            999 V2000
    3.1140   -0.2994   -0.5269 C   0  0  0  0  0  0  0  0  0  0  0  0
    1.6289   -0.5779   -0.2880 C   0  0  0  0  0  0  0  0  0  0  0  0
    1.4385   -2.0160    0.2055 C   0  0  0  0  0  0  0  0  0  0  0  0
    0.8973   -0.4171   -1.5871 C   0  0  0  0  0  0  0  0  0  0  0  0
   -0.2004    0.0774   -1.9579 N   0  0  0  0  0  0  0  0  0  0  0  0
   -1.0693    0.6776   -1.0146 O   0  0  0  0  0  0  0  0  0  0  0  0
   -1.7223   -0.1406   -0.1362 C   0  0  0  0  0  0  0  0  0  0  0  0
   -1.5932   -1.3497   -0.1206 O   0  0  0  0  0  0  0  0  0  0  0  0
   -2.5251    0.5866    0.6374 N   0  0  0  0  0  0  0  0  0  0  0  0
   -3.3081    0.0135    1.7089 C   0  0  0  0  0  0  0  0  0  0  0  0
    1.0148    0.5137    1.0803 S   0  0  0  0  0  0  0  0  0  0  0  0
    1.3570    2.1812    0.4361 C   0  0  0  0  0  0  0  0  0  0  0  0
    3.2627    0.6671   -1.0023 H   0  0  0  0  0  0  0  0  0  0  0  0
    3.6410   -0.3127    0.4239 H   0  0  0  0  0  0  0  0  0  0  0  0
    3.5339   -1.0686   -1.1703 H   0  0  0  0  0  0  0  0  0  0  0  0
    1.9578   -2.1446    1.1517 H   0  0  0  0  0  0  0  0  0  0  0  0
    1.8376   -2.7162   -0.5240 H   0  0  0  0  0  0  0  0  0  0  0  0
    0.3815   -2.2298    0.3533 H   0  0  0  0  0  0  0  0  0  0  0  0
    1.4448   -0.8117   -2.4377 H   0  0  0  0  0  0  0  0  0  0  0  0
   -2.5083    1.5891    0.5297 H   0  0  0  0  0  0  0  0  0  0  0  0
   -3.2195   -1.0690    1.6459 H   0  0  0  0  0  0  0  0  0  0  0  0
   -4.3517    0.3024    1.5996 H   0  0  0  0  0  0  0  0  0  0  0  0
   -2.9302    0.3501    2.6742 H   0  0  0  0  0  0  0  0  0  0  0  0
    0.8657    2.3117   -0.5235 H   0  0  0  0  0  0  0  0  0  0  0  0
    2.4275    2.3370    0.3595 H   0  0  0  0  0  0  0  0  0  0  0  0
    0.9364    2.8644    1.1660 H   0  0  0  0  0  0  0  0  0  0  0  0
  1  2  1  0  0  0  0
  2  3  1  0  0  0  0
  2  4  1  0  0  0  0
  4  5  2  0  0  0  0
  5  6  1  0  0  0  0
  6  7  1  0  0  0  0
  7  8  2  0  0  0  0
  7  9  4  0  0  0  0
  9 10  1  0  0  0  0
  2 11  1  0  0  0  0
 11 12  1  0  0  0  0
  1 13  1  0  0  0  0
  1 14  1  0  0  0  0
  1 15  1  0  0  0  0
  3 16  1  0  0  0  0
  3 17  1  0  0  0  0
  3 18  1  0  0  0  0
  4 19  1  0  0  0  0
  9 20  1  0  0  0  0
 10 21  1  0  0  0  0
 10 22  1  0  0  0  0
 10 23  1  0  0  0  0
 12 24  1  0  0  0  0
 12 25  1  0  0  0  0
 12 26  1  0  0  0  0
M  END
