 xtb: 6.7.1 (edcfbbe)
          04112516153D

 26 25  0     0  0            999 V2000
    2.8697   -1.4747   -0.6373 C   0  0  0  0  0  0  0  0  0  0  0  0
    1.7135   -0.5700   -0.2088 C   0  0  0  0  0  0  0  0  0  0  0  0
    1.0461   -1.0992    1.0480 C   0  0  0  0  0  0  0  0  0  0  0  0
    0.8466   -0.2987   -1.3914 C   0  0  0  0  0  0  0  0  0  0  0  0
   -0.3884   -0.3905   -1.6317 N   0  0  0  0  0  0  0  0  0  0  0  0
   -1.2441   -0.9619   -0.6429 O   0  0  0  0  0  0  0  0  0  0  0  0
   -2.0727   -0.0861   -0.0085 C   0  0  0  0  0  0  0  0  0  0  0  0
   -1.8998    1.1199   -0.0087 O   0  0  0  0  0  0  0  0  0  0  0  0
   -3.0321   -0.7511    0.6329 N   0  0  0  0  0  0  0  0  0  0  0  0
   -4.0259   -0.0999    1.4573 C   0  0  0  0  0  0  0  0  0  0  0  0
    2.4894    1.1014    0.1155 S   0  0  0  0  0  0  0  0  0  0  0  0
    1.1321    2.0896    0.8003 C   0  0  0  0  0  0  0  0  0  0  0  0
    3.3920   -1.0500   -1.4904 H   0  0  0  0  0  0  0  0  0  0  0  0
    3.5745   -1.5752    0.1834 H   0  0  0  0  0  0  0  0  0  0  0  0
    2.4881   -2.4572   -0.9047 H   0  0  0  0  0  0  0  0  0  0  0  0
    0.2609   -0.4323    1.3977 H   0  0  0  0  0  0  0  0  0  0  0  0
    1.7914   -1.1973    1.8342 H   0  0  0  0  0  0  0  0  0  0  0  0
    0.6091   -2.0758    0.8499 H   0  0  0  0  0  0  0  0  0  0  0  0
    1.3823    0.0975   -2.2474 H   0  0  0  0  0  0  0  0  0  0  0  0
   -3.0642   -1.7543    0.5319 H   0  0  0  0  0  0  0  0  0  0  0  0
   -3.8350    0.9709    1.4295 H   0  0  0  0  0  0  0  0  0  0  0  0
   -3.9542   -0.4566    2.4839 H   0  0  0  0  0  0  0  0  0  0  0  0
   -5.0233   -0.3002    1.0691 H   0  0  0  0  0  0  0  0  0  0  0  0
    1.0136    1.8688    1.8571 H   0  0  0  0  0  0  0  0  0  0  0  0
    0.2099    1.8994    0.2578 H   0  0  0  0  0  0  0  0  0  0  0  0
    1.4247    3.1259    0.6686 H   0  0  0  0  0  0  0  0  0  0  0  0
  1  2  1  0  0  0  0
  2  3  1  0  0  0  0
  2  4  1  0  0  0  0
  4  5  2  0  0  0  0
  5  6  1  0  0  0  0
  6  7  1  0  0  0  0
  7  8  2  0  0  0  0
  7  9  4  0  0  0  0
  9 10  1  0  0  0  0
  2 11  1  0  0  0  0
 11 12  1  0  0  0  0
  1 13  1  0  0  0  0
  1 14  1  0  0  0  0
  1 15  1  0  0  0  0
  3 16  1  0  0  0  0
  3 17  1  0  0  0  0
  3 18  1  0  0  0  0
  4 19  1  0  0  0  0
  9 20  1  0  0  0  0
 10 21  1  0  0  0  0
 10 22  1  0  0  0  0
 10 23  1  0  0  0  0
 12 24  1  0  0  0  0
 12 25  1  0  0  0  0
 12 26  1  0  0  0  0
M  END
