 xtb: 6.7.1 (edcfbbe)
          04112516123D

 19 18  0     0  0            999 V2000
   -2.7365   -0.9285    0.2531 C   0  0  0  0  0  0  0  0  0  0  0  0
   -1.3140   -0.5493   -0.1426 C   0  0  0  0  0  0  0  0  0  0  0  0
   -1.0958    0.9600   -0.0709 C   0  0  0  0  0  0  0  0  0  0  0  0
    0.2904    1.4053   -0.5363 C   0  0  0  0  0  0  0  0  0  0  0  0
    1.4303    0.9527    0.3884 C   0  0  0  0  0  0  0  0  0  0  0  0
    1.8383   -0.4183    0.1589 C   0  0  0  0  0  0  0  0  0  0  0  0
    2.2069   -1.5383   -0.0491 C   0  0  0  0  0  0  0  0  0  0  0  0
   -3.4573   -0.4553   -0.4104 H   0  0  0  0  0  0  0  0  0  0  0  0
   -2.9470   -0.6076    1.2710 H   0  0  0  0  0  0  0  0  0  0  0  0
   -2.8737   -2.0056    0.1977 H   0  0  0  0  0  0  0  0  0  0  0  0
   -0.6072   -1.0546    0.5172 H   0  0  0  0  0  0  0  0  0  0  0  0
   -1.1148   -0.8930   -1.1603 H   0  0  0  0  0  0  0  0  0  0  0  0
   -1.2575    1.2975    0.9562 H   0  0  0  0  0  0  0  0  0  0  0  0
   -1.8441    1.4515   -0.6985 H   0  0  0  0  0  0  0  0  0  0  0  0
    0.3016    2.4968   -0.5774 H   0  0  0  0  0  0  0  0  0  0  0  0
    0.4747    1.0309   -1.5457 H   0  0  0  0  0  0  0  0  0  0  0  0
    1.1253    1.0648    1.4323 H   0  0  0  0  0  0  0  0  0  0  0  0
    2.3036    1.5895    0.2206 H   0  0  0  0  0  0  0  0  0  0  0  0
    2.5126   -2.5261   -0.2234 H   0  0  0  0  0  0  0  0  0  0  0  0
  1  2  1  0  0  0  0
  2  3  1  0  0  0  0
  3  4  1  0  0  0  0
  4  5  1  0  0  0  0
  5  6  1  0  0  0  0
  6  7  3  0  0  0  0
  1  8  1  0  0  0  0
  1  9  1  0  0  0  0
  1 10  1  0  0  0  0
  2 11  1  0  0  0  0
  2 12  1  0  0  0  0
  3 13  1  0  0  0  0
  3 14  1  0  0  0  0
  4 15  1  0  0  0  0
  4 16  1  0  0  0  0
  5 17  1  0  0  0  0
  5 18  1  0  0  0  0
  7 19  1  0  0  0  0
M  END
