 xtb: 6.7.1 (edcfbbe)
          04112514233D

 18 17  0     0  0            999 V2000
    2.6759    0.1523   -0.5380 C   0  0  0  0  0  0  0  0  0  0  0  0
    1.7685    0.1329    0.6870 C   0  0  0  0  0  0  0  0  0  0  0  0
    0.4841   -0.6631    0.4515 C   0  0  0  0  0  0  0  0  0  0  0  0
   -0.4982    0.0323   -0.5137 C   0  0  0  0  0  0  0  0  0  0  0  0
   -1.7801    0.3875    0.1693 C   0  0  0  0  0  0  0  0  0  0  0  0
   -2.9748   -0.0253   -0.2103 C   0  0  0  0  0  0  0  0  0  0  0  0
    2.9731   -0.8599   -0.8033 H   0  0  0  0  0  0  0  0  0  0  0  0
    3.5735    0.7324   -0.3370 H   0  0  0  0  0  0  0  0  0  0  0  0
    2.1689    0.5931   -1.3928 H   0  0  0  0  0  0  0  0  0  0  0  0
    2.3124   -0.3152    1.5217 H   0  0  0  0  0  0  0  0  0  0  0  0
    1.5132    1.1561    0.9716 H   0  0  0  0  0  0  0  0  0  0  0  0
    0.7474   -1.6474    0.0614 H   0  0  0  0  0  0  0  0  0  0  0  0
   -0.0132   -0.8203    1.4112 H   0  0  0  0  0  0  0  0  0  0  0  0
   -0.0444    0.9528   -0.8887 H   0  0  0  0  0  0  0  0  0  0  0  0
   -0.7099   -0.6065   -1.3718 H   0  0  0  0  0  0  0  0  0  0  0  0
   -1.6759    1.0237    1.0393 H   0  0  0  0  0  0  0  0  0  0  0  0
   -3.8718    0.2540    0.3158 H   0  0  0  0  0  0  0  0  0  0  0  0
   -3.1058   -0.6601   -1.0715 H   0  0  0  0  0  0  0  0  0  0  0  0
  1  2  1  0  0  0  0
  2  3  1  0  0  0  0
  3  4  1  0  0  0  0
  4  5  1  0  0  0  0
  5  6  2  0  0  0  0
  1  7  1  0  0  0  0
  1  8  1  0  0  0  0
  1  9  1  0  0  0  0
  2 10  1  0  0  0  0
  2 11  1  0  0  0  0
  3 12  1  0  0  0  0
  3 13  1  0  0  0  0
  4 14  1  0  0  0  0
  4 15  1  0  0  0  0
  5 16  1  0  0  0  0
  6 17  1  0  0  0  0
  6 18  1  0  0  0  0
M  END
