 xtb: 6.7.1 (edcfbbe)
          04112516263D

 20 19  0     0  0            999 V2000
   -3.2163   -1.0554    0.0413 C   0  0  0  0  0  0  0  0  0  0  0  0
   -2.7238    0.3453    0.3868 C   0  0  0  0  0  0  0  0  0  0  0  0
   -1.2125    0.4141    0.6057 C   0  0  0  0  0  0  0  0  0  0  0  0
   -0.4180    0.1325   -0.6792 C   0  0  0  0  0  0  0  0  0  0  0  0
    1.0449    0.3351   -0.3988 C   0  0  0  0  0  0  0  0  0  0  0  0
    1.6556    1.3690   -0.5765 O   0  0  0  0  0  0  0  0  0  0  0  0
    1.6017   -0.7565    0.1141 O   0  0  0  0  0  0  0  0  0  0  0  0
    2.9817   -0.6865    0.4809 C   0  0  0  0  0  0  0  0  0  0  0  0
   -2.8353   -1.3776   -0.9237 H   0  0  0  0  0  0  0  0  0  0  0  0
   -2.8952   -1.7682    0.7970 H   0  0  0  0  0  0  0  0  0  0  0  0
   -4.3023   -1.0687   -0.0034 H   0  0  0  0  0  0  0  0  0  0  0  0
   -3.0051    1.0385   -0.4080 H   0  0  0  0  0  0  0  0  0  0  0  0
   -3.2133    0.6768    1.3045 H   0  0  0  0  0  0  0  0  0  0  0  0
   -0.9199   -0.3094    1.3692 H   0  0  0  0  0  0  0  0  0  0  0  0
   -0.9489    1.4117    0.9650 H   0  0  0  0  0  0  0  0  0  0  0  0
   -0.7244    0.8259   -1.4618 H   0  0  0  0  0  0  0  0  0  0  0  0
   -0.5751   -0.8962   -0.9972 H   0  0  0  0  0  0  0  0  0  0  0  0
    3.2311   -1.6676    0.8723 H   0  0  0  0  0  0  0  0  0  0  0  0
    3.1285    0.0869    1.2356 H   0  0  0  0  0  0  0  0  0  0  0  0
    3.5876   -0.4470   -0.3938 H   0  0  0  0  0  0  0  0  0  0  0  0
  1  2  1  0  0  0  0
  2  3  1  0  0  0  0
  3  4  1  0  0  0  0
  4  5  1  0  0  0  0
  5  6  2  0  0  0  0
  5  7  1  0  0  0  0
  7  8  1  0  0  0  0
  1  9  1  0  0  0  0
  1 10  1  0  0  0  0
  1 11  1  0  0  0  0
  2 12  1  0  0  0  0
  2 13  1  0  0  0  0
  3 14  1  0  0  0  0
  3 15  1  0  0  0  0
  4 16  1  0  0  0  0
  4 17  1  0  0  0  0
  8 18  1  0  0  0  0
  8 19  1  0  0  0  0
  8 20  1  0  0  0  0
M  END
