 xtb: 6.7.1 (edcfbbe)
          04112516113D

 17 16  0     0  0            999 V2000
   -4.0805    0.0606   -0.1782 C   0  0  0  0  0  0  0  0  0  0  0  0
   -2.9492   -0.8482    0.2901 C   0  0  0  0  0  0  0  0  0  0  0  0
   -1.6068   -0.5277   -0.3672 C   0  0  0  0  0  0  0  0  0  0  0  0
   -1.0442    0.8280    0.0547 C   0  0  0  0  0  0  0  0  0  0  0  0
    0.3159    1.1094   -0.5510 C   0  0  0  0  0  0  0  0  0  0  0  0
    1.7037   -0.1177    0.1391 Br  0  0  0  0  0  0  0  0  0  0  0  0
   -5.0253   -0.2699    0.2460 H   0  0  0  0  0  0  0  0  0  0  0  0
   -4.1649    0.0348   -1.2624 H   0  0  0  0  0  0  0  0  0  0  0  0
   -3.9137    1.0886    0.1323 H   0  0  0  0  0  0  0  0  0  0  0  0
   -2.8463   -0.7735    1.3748 H   0  0  0  0  0  0  0  0  0  0  0  0
   -3.2075   -1.8826    0.0546 H   0  0  0  0  0  0  0  0  0  0  0  0
   -0.8911   -1.3068   -0.0925 H   0  0  0  0  0  0  0  0  0  0  0  0
   -1.7224   -0.5501   -1.4536 H   0  0  0  0  0  0  0  0  0  0  0  0
   -1.7098    1.6262   -0.2796 H   0  0  0  0  0  0  0  0  0  0  0  0
   -0.9796    0.8745    1.1442 H   0  0  0  0  0  0  0  0  0  0  0  0
    0.6737    2.1068   -0.3030 H   0  0  0  0  0  0  0  0  0  0  0  0
    0.3178    0.9665   -1.6301 H   0  0  0  0  0  0  0  0  0  0  0  0
  1  2  1  0  0  0  0
  2  3  1  0  0  0  0
  3  4  1  0  0  0  0
  4  5  1  0  0  0  0
  5  6  1  0  0  0  0
  1  7  1  0  0  0  0
  1  8  1  0  0  0  0
  1  9  1  0  0  0  0
  2 10  1  0  0  0  0
  2 11  1  0  0  0  0
  3 12  1  0  0  0  0
  3 13  1  0  0  0  0
  4 14  1  0  0  0  0
  4 15  1  0  0  0  0
  5 16  1  0  0  0  0
  5 17  1  0  0  0  0
M  END
