 xtb: 6.7.1 (edcfbbe)
          04112516263D

 20 19  0     0  0            999 V2000
   -1.7745   -1.1767   -0.6088 C   0  0  0  0  0  0  0  0  0  0  0  0
   -2.3613   -0.0565    0.2413 C   0  0  0  0  0  0  0  0  0  0  0  0
   -1.3384    0.6041    1.1652 C   0  0  0  0  0  0  0  0  0  0  0  0
   -0.2553    1.3837    0.4120 C   0  0  0  0  0  0  0  0  0  0  0  0
    0.7895    0.5194   -0.2421 C   0  0  0  0  0  0  0  0  0  0  0  0
    1.2261    0.6966   -1.3629 O   0  0  0  0  0  0  0  0  0  0  0  0
    1.2306   -0.4436    0.5586 O   0  0  0  0  0  0  0  0  0  0  0  0
    2.2473   -1.3078    0.0502 C   0  0  0  0  0  0  0  0  0  0  0  0
   -2.5571   -1.6627   -1.1865 H   0  0  0  0  0  0  0  0  0  0  0  0
   -1.0353   -0.7895   -1.3074 H   0  0  0  0  0  0  0  0  0  0  0  0
   -1.2970   -1.9235    0.0219 H   0  0  0  0  0  0  0  0  0  0  0  0
   -2.7990    0.7008   -0.4125 H   0  0  0  0  0  0  0  0  0  0  0  0
   -3.1639   -0.4667    0.8576 H   0  0  0  0  0  0  0  0  0  0  0  0
   -0.8636   -0.1527    1.7904 H   0  0  0  0  0  0  0  0  0  0  0  0
   -1.8635    1.3035    1.8173 H   0  0  0  0  0  0  0  0  0  0  0  0
    0.2802    2.0198    1.1206 H   0  0  0  0  0  0  0  0  0  0  0  0
   -0.6940    2.0204   -0.3571 H   0  0  0  0  0  0  0  0  0  0  0  0
    1.9195   -1.7610   -0.8864 H   0  0  0  0  0  0  0  0  0  0  0  0
    2.4025   -2.0614    0.8157 H   0  0  0  0  0  0  0  0  0  0  0  0
    3.1615   -0.7416   -0.1322 H   0  0  0  0  0  0  0  0  0  0  0  0
  1  2  1  0  0  0  0
  2  3  1  0  0  0  0
  3  4  1  0  0  0  0
  4  5  1  0  0  0  0
  5  6  2  0  0  0  0
  5  7  1  0  0  0  0
  7  8  1  0  0  0  0
  1  9  1  0  0  0  0
  1 10  1  0  0  0  0
  1 11  1  0  0  0  0
  2 12  1  0  0  0  0
  2 13  1  0  0  0  0
  3 14  1  0  0  0  0
  3 15  1  0  0  0  0
  4 16  1  0  0  0  0
  4 17  1  0  0  0  0
  8 18  1  0  0  0  0
  8 19  1  0  0  0  0
  8 20  1  0  0  0  0
M  END
