 xtb: 6.7.1 (edcfbbe)
          04112514083D

 16 15  0     0  0            999 V2000
   -2.5125   -0.8495   -0.2579 C   0  0  0  0  0  0  0  0  0  0  0  0
   -1.3760   -0.2873    0.3613 O   0  0  0  0  0  0  0  0  0  0  0  0
   -0.6003    0.5004   -0.5178 C   0  0  0  0  0  0  0  0  0  0  0  0
    0.6063    1.0583    0.2417 C   0  0  0  0  0  0  0  0  0  0  0  0
    1.5539    0.0935    0.6399 O   0  0  0  0  0  0  0  0  0  0  0  0
    2.3431   -0.4366   -0.4070 C   0  0  0  0  0  0  0  0  0  0  0  0
   -3.0259   -1.4201    0.5115 H   0  0  0  0  0  0  0  0  0  0  0  0
   -2.2240   -1.5125   -1.0813 H   0  0  0  0  0  0  0  0  0  0  0  0
   -3.1737   -0.0659   -0.6445 H   0  0  0  0  0  0  0  0  0  0  0  0
   -0.2760   -0.1048   -1.3767 H   0  0  0  0  0  0  0  0  0  0  0  0
   -1.1985    1.3428   -0.8957 H   0  0  0  0  0  0  0  0  0  0  0  0
    0.2542    1.5040    1.1739 H   0  0  0  0  0  0  0  0  0  0  0  0
    1.0882    1.8257   -0.3802 H   0  0  0  0  0  0  0  0  0  0  0  0
    3.1128   -1.0331    0.0764 H   0  0  0  0  0  0  0  0  0  0  0  0
    2.8068    0.3677   -0.9882 H   0  0  0  0  0  0  0  0  0  0  0  0
    1.7584   -1.0754   -1.0750 H   0  0  0  0  0  0  0  0  0  0  0  0
  1  2  1  0  0  0  0
  2  3  1  0  0  0  0
  3  4  1  0  0  0  0
  4  5  1  0  0  0  0
  5  6  1  0  0  0  0
  1  7  1  0  0  0  0
  1  8  1  0  0  0  0
  1  9  1  0  0  0  0
  3 10  1  0  0  0  0
  3 11  1  0  0  0  0
  4 12  1  0  0  0  0
  4 13  1  0  0  0  0
  6 14  1  0  0  0  0
  6 15  1  0  0  0  0
  6 16  1  0  0  0  0
M  END
