 xtb: 6.7.1 (edcfbbe)
          04112516193D

 13 13  0     0  0            999 V2000
    1.6874    0.2870   -1.0374 C   0  0  0  0  0  0  0  0  0  0  0  0
    1.5934   -0.2092    0.3657 C   0  0  0  0  0  0  0  0  0  0  0  0
    2.4357   -0.8862    0.9085 O   0  0  0  0  0  0  0  0  0  0  0  0
    0.3454    0.2003    1.1469 C   0  0  0  0  0  0  0  0  0  0  0  0
   -0.6477    0.8550    0.3795 O   0  0  0  0  0  0  0  0  0  0  0  0
   -1.4806    0.0664   -0.3664 N   0  0  0  0  0  0  0  0  0  0  0  0
   -1.3046   -1.1108   -0.3285 O   0  0  0  0  0  0  0  0  0  0  0  0
   -2.2952    0.6778   -0.9780 O   0  0  0  0  0  0  0  0  0  0  0  0
    1.0531   -0.3343   -1.6703 H   0  0  0  0  0  0  0  0  0  0  0  0
    1.3397    1.3147   -1.1053 H   0  0  0  0  0  0  0  0  0  0  0  0
    2.7101    0.1990   -1.3915 H   0  0  0  0  0  0  0  0  0  0  0  0
    0.6370    0.9302    1.9060 H   0  0  0  0  0  0  0  0  0  0  0  0
   -0.0640   -0.6843    1.6459 H   0  0  0  0  0  0  0  0  0  0  0  0
  1  2  1  0  0  0  0
  2  3  2  0  0  0  0
  2  4  1  0  0  0  0
  4  5  1  0  0  0  0
  5  6  1  0  0  0  0
  6  7  4  0  0  0  0
  6  8  4  0  0  0  0
  7  8  1  0  0  0  0
  1  9  1  0  0  0  0
  1 10  1  0  0  0  0
  1 11  1  0  0  0  0
  4 12  1  0  0  0  0
  4 13  1  0  0  0  0
M  END
