 xtb: 6.7.1 (edcfbbe)
          04112516093D

 19 18  0     0  0            999 V2000
    2.8575    0.8032   -0.5324 C   0  0  0  0  0  0  0  0  0  0  0  0
    2.2781   -0.1956    0.4631 C   0  0  0  0  0  0  0  0  0  0  0  0
    0.7876    0.0188    0.7281 C   0  0  0  0  0  0  0  0  0  0  0  0
   -0.0732   -0.2687   -0.5112 C   0  0  0  0  0  0  0  0  0  0  0  0
   -1.5403   -0.2481   -0.1645 C   0  0  0  0  0  0  0  0  0  0  0  0
   -2.2068   -1.2660   -0.1388 O   0  0  0  0  0  0  0  0  0  0  0  0
   -2.1184    1.0948    0.1701 C   0  0  0  0  0  0  0  0  0  0  0  0
    2.6720    1.8221   -0.2009 H   0  0  0  0  0  0  0  0  0  0  0  0
    3.9317    0.6624   -0.6208 H   0  0  0  0  0  0  0  0  0  0  0  0
    2.4191    0.6723   -1.5178 H   0  0  0  0  0  0  0  0  0  0  0  0
    2.8099   -0.0990    1.4121 H   0  0  0  0  0  0  0  0  0  0  0  0
    2.4391   -1.2115    0.0969 H   0  0  0  0  0  0  0  0  0  0  0  0
    0.6286    1.0470    1.0552 H   0  0  0  0  0  0  0  0  0  0  0  0
    0.4727   -0.6483    1.5341 H   0  0  0  0  0  0  0  0  0  0  0  0
    0.1243    0.4814   -1.2760 H   0  0  0  0  0  0  0  0  0  0  0  0
    0.1760   -1.2571   -0.9019 H   0  0  0  0  0  0  0  0  0  0  0  0
   -3.2011    1.0306    0.2342 H   0  0  0  0  0  0  0  0  0  0  0  0
   -1.7272    1.4134    1.1339 H   0  0  0  0  0  0  0  0  0  0  0  0
   -1.8266    1.8304   -0.5731 H   0  0  0  0  0  0  0  0  0  0  0  0
  1  2  1  0  0  0  0
  2  3  1  0  0  0  0
  3  4  1  0  0  0  0
  4  5  1  0  0  0  0
  5  6  2  0  0  0  0
  5  7  1  0  0  0  0
  1  8  1  0  0  0  0
  1  9  1  0  0  0  0
  1 10  1  0  0  0  0
  2 11  1  0  0  0  0
  2 12  1  0  0  0  0
  3 13  1  0  0  0  0
  3 14  1  0  0  0  0
  4 15  1  0  0  0  0
  4 16  1  0  0  0  0
  7 17  1  0  0  0  0
  7 18  1  0  0  0  0
  7 19  1  0  0  0  0
M  END
