 xtb: 6.7.1 (edcfbbe)
          04112516293D

 20 19  0     0  0            999 V2000
   -2.2573   -1.3083    0.2589 C   0  0  0  0  0  0  0  0  0  0  0  0
   -2.6222    0.1672    0.3681 C   0  0  0  0  0  0  0  0  0  0  0  0
   -1.7004    1.0781   -0.4441 C   0  0  0  0  0  0  0  0  0  0  0  0
   -0.2687    1.1257    0.0742 C   0  0  0  0  0  0  0  0  0  0  0  0
    0.4442   -0.0322   -0.3847 O   0  0  0  0  0  0  0  0  0  0  0  0
    1.7221   -0.1425   -0.0512 C   0  0  0  0  0  0  0  0  0  0  0  0
    2.3062    0.6871    0.6179 O   0  0  0  0  0  0  0  0  0  0  0  0
    2.3314   -1.4046   -0.5837 C   0  0  0  0  0  0  0  0  0  0  0  0
   -1.2657   -1.4930    0.6621 H   0  0  0  0  0  0  0  0  0  0  0  0
   -2.9713   -1.9147    0.8111 H   0  0  0  0  0  0  0  0  0  0  0  0
   -2.2656   -1.6248   -0.7811 H   0  0  0  0  0  0  0  0  0  0  0  0
   -3.6433    0.3079    0.0084 H   0  0  0  0  0  0  0  0  0  0  0  0
   -2.5949    0.4731    1.4161 H   0  0  0  0  0  0  0  0  0  0  0  0
   -1.6768    0.7468   -1.4829 H   0  0  0  0  0  0  0  0  0  0  0  0
   -2.0939    2.0946   -0.4164 H   0  0  0  0  0  0  0  0  0  0  0  0
    0.2568    2.0123   -0.2968 H   0  0  0  0  0  0  0  0  0  0  0  0
   -0.2348    1.1481    1.1687 H   0  0  0  0  0  0  0  0  0  0  0  0
    2.2979   -2.1595    0.1992 H   0  0  0  0  0  0  0  0  0  0  0  0
    3.3707   -1.2260   -0.8411 H   0  0  0  0  0  0  0  0  0  0  0  0
    1.7667   -1.7552   -1.4407 H   0  0  0  0  0  0  0  0  0  0  0  0
  1  2  1  0  0  0  0
  2  3  1  0  0  0  0
  3  4  1  0  0  0  0
  4  5  1  0  0  0  0
  5  6  1  0  0  0  0
  6  7  2  0  0  0  0
  6  8  1  0  0  0  0
  1  9  1  0  0  0  0
  1 10  1  0  0  0  0
  1 11  1  0  0  0  0
  2 12  1  0  0  0  0
  2 13  1  0  0  0  0
  3 14  1  0  0  0  0
  3 15  1  0  0  0  0
  4 16  1  0  0  0  0
  4 17  1  0  0  0  0
  8 18  1  0  0  0  0
  8 19  1  0  0  0  0
  8 20  1  0  0  0  0
M  END
