 xtb: 6.7.1 (edcfbbe)
          04112516113D

 20 19  0     0  0            999 V2000
    3.9967   -0.2129    0.2451 C   0  0  0  0  0  0  0  0  0  0  0  0
    2.6576   -0.1110   -0.4118 C   0  0  0  0  0  0  0  0  0  0  0  0
    2.2882   -0.7624   -1.3645 O   0  0  0  0  0  0  0  0  0  0  0  0
    1.8872    0.8034    0.1864 O   0  0  0  0  0  0  0  0  0  0  0  0
    0.5721    1.0109   -0.3210 C   0  0  0  0  0  0  0  0  0  0  0  0
   -0.3733   -0.0959    0.1458 C   0  0  0  0  0  0  0  0  0  0  0  0
   -1.6931    0.2484   -0.2688 O   0  0  0  0  0  0  0  0  0  0  0  0
   -2.7201   -0.2039    0.4543 C   0  0  0  0  0  0  0  0  0  0  0  0
   -2.5798   -0.8896    1.4442 O   0  0  0  0  0  0  0  0  0  0  0  0
   -4.0286    0.2441   -0.1147 C   0  0  0  0  0  0  0  0  0  0  0  0
    4.7648   -0.3349   -0.5126 H   0  0  0  0  0  0  0  0  0  0  0  0
    4.0027   -1.0985    0.8771 H   0  0  0  0  0  0  0  0  0  0  0  0
    4.1785    0.6657    0.8540 H   0  0  0  0  0  0  0  0  0  0  0  0
    0.2543    1.9759    0.0741 H   0  0  0  0  0  0  0  0  0  0  0  0
    0.5962    1.0328   -1.4146 H   0  0  0  0  0  0  0  0  0  0  0  0
   -0.3477   -0.1992    1.2363 H   0  0  0  0  0  0  0  0  0  0  0  0
   -0.0946   -1.0522   -0.3097 H   0  0  0  0  0  0  0  0  0  0  0  0
   -4.5690   -0.6276   -0.4762 H   0  0  0  0  0  0  0  0  0  0  0  0
   -3.8589    0.9414   -0.9274 H   0  0  0  0  0  0  0  0  0  0  0  0
   -4.6232    0.7002    0.6720 H   0  0  0  0  0  0  0  0  0  0  0  0
  1  2  1  0  0  0  0
  2  3  2  0  0  0  0
  2  4  1  0  0  0  0
  4  5  1  0  0  0  0
  5  6  1  0  0  0  0
  6  7  1  0  0  0  0
  7  8  1  0  0  0  0
  8  9  2  0  0  0  0
  8 10  1  0  0  0  0
  1 11  1  0  0  0  0
  1 12  1  0  0  0  0
  1 13  1  0  0  0  0
  5 14  1  0  0  0  0
  5 15  1  0  0  0  0
  6 16  1  0  0  0  0
  6 17  1  0  0  0  0
 10 18  1  0  0  0  0
 10 19  1  0  0  0  0
 10 20  1  0  0  0  0
M  END
