 xtb: 6.7.1 (edcfbbe)
          04112516153D

 26 25  0     0  0            999 V2000
    3.4003   -0.4213   -0.8237 C   0  0  0  0  0  0  0  0  0  0  0  0
    1.9661   -0.5704   -0.3333 C   0  0  0  0  0  0  0  0  0  0  0  0
    1.7456   -1.9517    0.2871 C   0  0  0  0  0  0  0  0  0  0  0  0
    0.9911   -0.3321   -1.4423 C   0  0  0  0  0  0  0  0  0  0  0  0
   -0.2675   -0.2362   -1.4231 N   0  0  0  0  0  0  0  0  0  0  0  0
   -0.8798   -0.3675   -0.1632 O   0  0  0  0  0  0  0  0  0  0  0  0
   -2.2209   -0.0593   -0.1499 C   0  0  0  0  0  0  0  0  0  0  0  0
   -2.8446    0.3078   -1.1215 O   0  0  0  0  0  0  0  0  0  0  0  0
   -2.6868   -0.2265    1.0875 N   0  0  0  0  0  0  0  0  0  0  0  0
   -4.0628    0.0314    1.4493 C   0  0  0  0  0  0  0  0  0  0  0  0
    1.6527    0.6576    1.0369 S   0  0  0  0  0  0  0  0  0  0  0  0
    1.5757    2.2355    0.1440 C   0  0  0  0  0  0  0  0  0  0  0  0
    3.6207   -1.1910   -1.5599 H   0  0  0  0  0  0  0  0  0  0  0  0
    3.5598    0.5514   -1.2832 H   0  0  0  0  0  0  0  0  0  0  0  0
    4.0862   -0.5279    0.0127 H   0  0  0  0  0  0  0  0  0  0  0  0
    1.9618   -2.7231   -0.4482 H   0  0  0  0  0  0  0  0  0  0  0  0
    0.7173   -2.0593    0.6215 H   0  0  0  0  0  0  0  0  0  0  0  0
    2.4054   -2.0750    1.1418 H   0  0  0  0  0  0  0  0  0  0  0  0
    1.3930   -0.2105   -2.4398 H   0  0  0  0  0  0  0  0  0  0  0  0
   -2.0406   -0.5082    1.8095 H   0  0  0  0  0  0  0  0  0  0  0  0
   -4.5934    0.3348    0.5492 H   0  0  0  0  0  0  0  0  0  0  0  0
   -4.1144    0.8293    2.1888 H   0  0  0  0  0  0  0  0  0  0  0  0
   -4.5176   -0.8717    1.8535 H   0  0  0  0  0  0  0  0  0  0  0  0
    1.4292    2.9945    0.9052 H   0  0  0  0  0  0  0  0  0  0  0  0
    0.7344    2.2315   -0.5439 H   0  0  0  0  0  0  0  0  0  0  0  0
    2.5085    2.4124   -0.3813 H   0  0  0  0  0  0  0  0  0  0  0  0
  1  2  1  0  0  0  0
  2  3  1  0  0  0  0
  2  4  1  0  0  0  0
  4  5  2  0  0  0  0
  5  6  1  0  0  0  0
  6  7  1  0  0  0  0
  7  8  2  0  0  0  0
  7  9  4  0  0  0  0
  9 10  1  0  0  0  0
  2 11  1  0  0  0  0
 11 12  1  0  0  0  0
  1 13  1  0  0  0  0
  1 14  1  0  0  0  0
  1 15  1  0  0  0  0
  3 16  1  0  0  0  0
  3 17  1  0  0  0  0
  3 18  1  0  0  0  0
  4 19  1  0  0  0  0
  9 20  1  0  0  0  0
 10 21  1  0  0  0  0
 10 22  1  0  0  0  0
 10 23  1  0  0  0  0
 12 24  1  0  0  0  0
 12 25  1  0  0  0  0
 12 26  1  0  0  0  0
M  END
