 xtb: 6.7.1 (edcfbbe)
          04112514233D

 23 22  0     0  0            999 V2000
    2.8267    0.3767    1.3716 C   0  0  0  0  0  0  0  0  0  0  0  0
    2.4299    0.3539   -0.1030 C   0  0  0  0  0  0  0  0  0  0  0  0
    3.5626   -0.2388   -0.9401 C   0  0  0  0  0  0  0  0  0  0  0  0
    1.1478   -0.4538   -0.3331 C   0  0  0  0  0  0  0  0  0  0  0  0
   -0.0770    0.1721    0.3199 C   0  0  0  0  0  0  0  0  0  0  0  0
   -1.2346   -0.5617   -0.1060 O   0  0  0  0  0  0  0  0  0  0  0  0
   -2.4181    0.0354   -0.0456 C   0  0  0  0  0  0  0  0  0  0  0  0
   -2.5729    1.1668    0.3692 O   0  0  0  0  0  0  0  0  0  0  0  0
   -3.5119   -0.8485   -0.5638 C   0  0  0  0  0  0  0  0  0  0  0  0
    2.0793    0.8886    1.9714 H   0  0  0  0  0  0  0  0  0  0  0  0
    3.7730    0.8975    1.4955 H   0  0  0  0  0  0  0  0  0  0  0  0
    2.9418   -0.6369    1.7480 H   0  0  0  0  0  0  0  0  0  0  0  0
    2.2534    1.3836   -0.4332 H   0  0  0  0  0  0  0  0  0  0  0  0
    3.3038   -0.2367   -1.9958 H   0  0  0  0  0  0  0  0  0  0  0  0
    3.7599   -1.2637   -0.6355 H   0  0  0  0  0  0  0  0  0  0  0  0
    4.4732    0.3400   -0.8093 H   0  0  0  0  0  0  0  0  0  0  0  0
    1.2744   -1.4668    0.0513 H   0  0  0  0  0  0  0  0  0  0  0  0
    0.9548   -0.5248   -1.4052 H   0  0  0  0  0  0  0  0  0  0  0  0
   -0.0301    0.1213    1.4113 H   0  0  0  0  0  0  0  0  0  0  0  0
   -0.1993    1.2206    0.0268 H   0  0  0  0  0  0  0  0  0  0  0  0
   -3.7766   -0.5166   -1.5654 H   0  0  0  0  0  0  0  0  0  0  0  0
   -4.3892   -0.7476    0.0680 H   0  0  0  0  0  0  0  0  0  0  0  0
   -3.1697   -1.8768   -0.6011 H   0  0  0  0  0  0  0  0  0  0  0  0
  1  2  1  0  0  0  0
  2  3  1  0  0  0  0
  2  4  1  0  0  0  0
  4  5  1  0  0  0  0
  5  6  1  0  0  0  0
  6  7  1  0  0  0  0
  7  8  2  0  0  0  0
  7  9  1  0  0  0  0
  1 10  1  0  0  0  0
  1 11  1  0  0  0  0
  1 12  1  0  0  0  0
  2 13  1  0  0  0  0
  3 14  1  0  0  0  0
  3 15  1  0  0  0  0
  3 16  1  0  0  0  0
  4 17  1  0  0  0  0
  4 18  1  0  0  0  0
  5 19  1  0  0  0  0
  5 20  1  0  0  0  0
  9 21  1  0  0  0  0
  9 22  1  0  0  0  0
  9 23  1  0  0  0  0
M  END
