 xtb: 6.7.1 (edcfbbe)
          04112514053D

 17 16  0     0  0            999 V2000
    2.2748   -1.2985   -0.3544 C   0  0  0  0  0  0  0  0  0  0  0  0
    2.1844   -0.0879    0.5688 C   0  0  0  0  0  0  0  0  0  0  0  0
    1.5106    1.1027   -0.1112 C   0  0  0  0  0  0  0  0  0  0  0  0
    0.0498    0.9922   -0.3475 C   0  0  0  0  0  0  0  0  0  0  0  0
   -0.7916    0.0732    0.1450 C   0  0  0  0  0  0  0  0  0  0  0  0
   -2.2016    0.1057   -0.1567 C   0  0  0  0  0  0  0  0  0  0  0  0
   -3.0310   -0.6866    0.2559 O   0  0  0  0  0  0  0  0  0  0  0  0
    1.2881   -1.6076   -0.6900 H   0  0  0  0  0  0  0  0  0  0  0  0
    2.8736   -1.0626   -1.2313 H   0  0  0  0  0  0  0  0  0  0  0  0
    2.7400   -2.1350    0.1609 H   0  0  0  0  0  0  0  0  0  0  0  0
    3.1935    0.2072    0.8617 H   0  0  0  0  0  0  0  0  0  0  0  0
    1.6439   -0.3505    1.4788 H   0  0  0  0  0  0  0  0  0  0  0  0
    1.9971    1.2959   -1.0715 H   0  0  0  0  0  0  0  0  0  0  0  0
    1.6630    2.0031    0.4935 H   0  0  0  0  0  0  0  0  0  0  0  0
   -0.3644    1.7709   -0.9779 H   0  0  0  0  0  0  0  0  0  0  0  0
   -0.4665   -0.7307    0.7877 H   0  0  0  0  0  0  0  0  0  0  0  0
   -2.5177    0.9314   -0.8223 H   0  0  0  0  0  0  0  0  0  0  0  0
  1  2  1  0  0  0  0
  2  3  1  0  0  0  0
  3  4  1  0  0  0  0
  4  5  2  0  0  0  0
  5  6  1  0  0  0  0
  6  7  2  0  0  0  0
  1  8  1  0  0  0  0
  1  9  1  0  0  0  0
  1 10  1  0  0  0  0
  2 11  1  0  0  0  0
  2 12  1  0  0  0  0
  3 13  1  0  0  0  0
  3 14  1  0  0  0  0
  4 15  1  0  0  0  0
  5 16  1  0  0  0  0
  6 17  1  0  0  0  0
M  END
