 xtb: 6.7.1 (edcfbbe)
          04112516113D

 20 19  0     0  0            999 V2000
    3.9632    0.3134    0.1200 C   0  0  0  0  0  0  0  0  0  0  0  0
    2.6138    0.0540   -0.4693 C   0  0  0  0  0  0  0  0  0  0  0  0
    2.3157    0.1916   -1.6355 O   0  0  0  0  0  0  0  0  0  0  0  0
    1.7449   -0.3584    0.4602 O   0  0  0  0  0  0  0  0  0  0  0  0
    0.4101   -0.6402    0.0538 C   0  0  0  0  0  0  0  0  0  0  0  0
   -0.4121    0.6498   -0.0482 C   0  0  0  0  0  0  0  0  0  0  0  0
   -1.7466    0.3698   -0.4570 O   0  0  0  0  0  0  0  0  0  0  0  0
   -2.6134   -0.0569    0.4680 C   0  0  0  0  0  0  0  0  0  0  0  0
   -2.3138   -0.2085    1.6321 O   0  0  0  0  0  0  0  0  0  0  0  0
   -3.9622   -0.3140   -0.1235 C   0  0  0  0  0  0  0  0  0  0  0  0
    4.7261   -0.1245   -0.5171 H   0  0  0  0  0  0  0  0  0  0  0  0
    4.0121   -0.0907    1.1249 H   0  0  0  0  0  0  0  0  0  0  0  0
    4.1275    1.3884    0.1475 H   0  0  0  0  0  0  0  0  0  0  0  0
    0.4181   -1.1464   -0.9172 H   0  0  0  0  0  0  0  0  0  0  0  0
   -0.0011   -1.2909    0.8273 H   0  0  0  0  0  0  0  0  0  0  0  0
    0.0002    1.3011   -0.8206 H   0  0  0  0  0  0  0  0  0  0  0  0
   -0.4210    1.1551    0.9232 H   0  0  0  0  0  0  0  0  0  0  0  0
   -4.0297    0.1435   -1.1042 H   0  0  0  0  0  0  0  0  0  0  0  0
   -4.7294    0.0679    0.5435 H   0  0  0  0  0  0  0  0  0  0  0  0
   -4.0997   -1.3895   -0.2128 H   0  0  0  0  0  0  0  0  0  0  0  0
  1  2  1  0  0  0  0
  2  3  2  0  0  0  0
  2  4  1  0  0  0  0
  4  5  1  0  0  0  0
  5  6  1  0  0  0  0
  6  7  1  0  0  0  0
  7  8  1  0  0  0  0
  8  9  2  0  0  0  0
  8 10  1  0  0  0  0
  1 11  1  0  0  0  0
  1 12  1  0  0  0  0
  1 13  1  0  0  0  0
  5 14  1  0  0  0  0
  5 15  1  0  0  0  0
  6 16  1  0  0  0  0
  6 17  1  0  0  0  0
 10 18  1  0  0  0  0
 10 19  1  0  0  0  0
 10 20  1  0  0  0  0
M  END
