 xtb: 6.7.1 (edcfbbe)
          04112516353D

 19 18  0     0  0            999 V2000
    3.4177   -0.3022   -0.0006 C   0  0  0  0  0  0  0  0  0  0  0  0
    2.1867    0.5959    0.0054 C   0  0  0  0  0  0  0  0  0  0  0  0
    0.8955   -0.2183   -0.0033 C   0  0  0  0  0  0  0  0  0  0  0  0
   -0.3430    0.6725    0.0010 C   0  0  0  0  0  0  0  0  0  0  0  0
   -1.6335   -0.1035   -0.0015 C   0  0  0  0  0  0  0  0  0  0  0  0
   -1.6718   -1.3190   -0.0029 O   0  0  0  0  0  0  0  0  0  0  0  0
   -2.8842    0.7322   -0.0036 C   0  0  0  0  0  0  0  0  0  0  0  0
    3.4249   -0.9318   -0.8875 H   0  0  0  0  0  0  0  0  0  0  0  0
    4.3268    0.2939    0.0064 H   0  0  0  0  0  0  0  0  0  0  0  0
    3.4218   -0.9478    0.8747 H   0  0  0  0  0  0  0  0  0  0  0  0
    2.2095    1.2465   -0.8715 H   0  0  0  0  0  0  0  0  0  0  0  0
    2.2070    1.2313    0.8934 H   0  0  0  0  0  0  0  0  0  0  0  0
    0.8656   -0.8740    0.8698 H   0  0  0  0  0  0  0  0  0  0  0  0
    0.8691   -0.8609   -0.8863 H   0  0  0  0  0  0  0  0  0  0  0  0
   -0.3446    1.3168    0.8835 H   0  0  0  0  0  0  0  0  0  0  0  0
   -0.3451    1.3256   -0.8750 H   0  0  0  0  0  0  0  0  0  0  0  0
   -3.4721    0.4836   -0.8847 H   0  0  0  0  0  0  0  0  0  0  0  0
   -3.4859    0.4689    0.8637 H   0  0  0  0  0  0  0  0  0  0  0  0
   -2.6619    1.7930    0.0066 H   0  0  0  0  0  0  0  0  0  0  0  0
  1  2  1  0  0  0  0
  2  3  1  0  0  0  0
  3  4  1  0  0  0  0
  4  5  1  0  0  0  0
  5  6  2  0  0  0  0
  5  7  1  0  0  0  0
  1  8  1  0  0  0  0
  1  9  1  0  0  0  0
  1 10  1  0  0  0  0
  2 11  1  0  0  0  0
  2 12  1  0  0  0  0
  3 13  1  0  0  0  0
  3 14  1  0  0  0  0
  4 15  1  0  0  0  0
  4 16  1  0  0  0  0
  7 17  1  0  0  0  0
  7 18  1  0  0  0  0
  7 19  1  0  0  0  0
M  END
