 xtb: 6.7.1 (edcfbbe)
          04112514233D

 23 22  0     0  0            999 V2000
    1.7737    0.7521   -1.3992 C   0  0  0  0  0  0  0  0  0  0  0  0
    2.2547   -0.2479   -0.3516 C   0  0  0  0  0  0  0  0  0  0  0  0
    3.6548    0.1289    0.1308 C   0  0  0  0  0  0  0  0  0  0  0  0
    1.2995   -0.3207    0.8459 C   0  0  0  0  0  0  0  0  0  0  0  0
   -0.0667   -0.9155    0.5221 C   0  0  0  0  0  0  0  0  0  0  0  0
   -0.8980    0.0644   -0.1175 O   0  0  0  0  0  0  0  0  0  0  0  0
   -2.1997    0.0623    0.1332 C   0  0  0  0  0  0  0  0  0  0  0  0
   -2.7400   -0.7363    0.8728 O   0  0  0  0  0  0  0  0  0  0  0  0
   -2.9081    1.1533   -0.6126 C   0  0  0  0  0  0  0  0  0  0  0  0
    1.7185    1.7496   -0.9690 H   0  0  0  0  0  0  0  0  0  0  0  0
    0.7883    0.4830   -1.7671 H   0  0  0  0  0  0  0  0  0  0  0  0
    2.4627    0.7775   -2.2402 H   0  0  0  0  0  0  0  0  0  0  0  0
    2.3027   -1.2413   -0.8119 H   0  0  0  0  0  0  0  0  0  0  0  0
    3.6389    1.1040    0.6121 H   0  0  0  0  0  0  0  0  0  0  0  0
    4.3451    0.1720   -0.7078 H   0  0  0  0  0  0  0  0  0  0  0  0
    4.0274   -0.6015    0.8447 H   0  0  0  0  0  0  0  0  0  0  0  0
    1.1561    0.6783    1.2608 H   0  0  0  0  0  0  0  0  0  0  0  0
    1.7504   -0.9468    1.6171 H   0  0  0  0  0  0  0  0  0  0  0  0
    0.0269   -1.7697   -0.1558 H   0  0  0  0  0  0  0  0  0  0  0  0
   -0.5780   -1.2465    1.4323 H   0  0  0  0  0  0  0  0  0  0  0  0
   -3.6297    1.6291    0.0449 H   0  0  0  0  0  0  0  0  0  0  0  0
   -3.4520    0.7074   -1.4424 H   0  0  0  0  0  0  0  0  0  0  0  0
   -2.1900    1.8722   -0.9911 H   0  0  0  0  0  0  0  0  0  0  0  0
  1  2  1  0  0  0  0
  2  3  1  0  0  0  0
  2  4  1  0  0  0  0
  4  5  1  0  0  0  0
  5  6  1  0  0  0  0
  6  7  1  0  0  0  0
  7  8  2  0  0  0  0
  7  9  1  0  0  0  0
  1 10  1  0  0  0  0
  1 11  1  0  0  0  0
  1 12  1  0  0  0  0
  2 13  1  0  0  0  0
  3 14  1  0  0  0  0
  3 15  1  0  0  0  0
  3 16  1  0  0  0  0
  4 17  1  0  0  0  0
  4 18  1  0  0  0  0
  5 19  1  0  0  0  0
  5 20  1  0  0  0  0
  9 21  1  0  0  0  0
  9 22  1  0  0  0  0
  9 23  1  0  0  0  0
M  END
