 xtb: 6.7.1 (edcfbbe)
          04112516593D

 20 19  0     0  0            999 V2000
   -3.6268   -0.7363    0.0153 C   0  0  0  0  0  0  0  0  0  0  0  0
   -2.1993   -0.3987   -0.3970 C   0  0  0  0  0  0  0  0  0  0  0  0
   -1.6100    0.7083    0.4757 C   0  0  0  0  0  0  0  0  0  0  0  0
   -0.1811    1.0496    0.0811 C   0  0  0  0  0  0  0  0  0  0  0  0
    0.6549   -0.0807    0.3696 O   0  0  0  0  0  0  0  0  0  0  0  0
    1.9074   -0.0524   -0.0655 C   0  0  0  0  0  0  0  0  0  0  0  0
    2.3746    0.8859   -0.6801 O   0  0  0  0  0  0  0  0  0  0  0  0
    2.6465   -1.3098    0.2802 C   0  0  0  0  0  0  0  0  0  0  0  0
   -3.6555   -1.0731    1.0487 H   0  0  0  0  0  0  0  0  0  0  0  0
   -4.2668    0.1378   -0.0786 H   0  0  0  0  0  0  0  0  0  0  0  0
   -4.0277   -1.5256   -0.6150 H   0  0  0  0  0  0  0  0  0  0  0  0
   -1.5728   -1.2882   -0.3121 H   0  0  0  0  0  0  0  0  0  0  0  0
   -2.1870   -0.0789   -1.4413 H   0  0  0  0  0  0  0  0  0  0  0  0
   -2.2119    1.6128    0.3843 H   0  0  0  0  0  0  0  0  0  0  0  0
   -1.6168    0.3925    1.5196 H   0  0  0  0  0  0  0  0  0  0  0  0
   -0.0995    1.2802   -0.9866 H   0  0  0  0  0  0  0  0  0  0  0  0
    0.1960    1.9090    0.6453 H   0  0  0  0  0  0  0  0  0  0  0  0
    2.6613   -1.9512   -0.5985 H   0  0  0  0  0  0  0  0  0  0  0  0
    2.1435   -1.8235    1.0921 H   0  0  0  0  0  0  0  0  0  0  0  0
    3.6723   -1.0684    0.5412 H   0  0  0  0  0  0  0  0  0  0  0  0
  1  2  1  0  0  0  0
  2  3  1  0  0  0  0
  3  4  1  0  0  0  0
  4  5  1  0  0  0  0
  5  6  1  0  0  0  0
  6  7  2  0  0  0  0
  6  8  1  0  0  0  0
  1  9  1  0  0  0  0
  1 10  1  0  0  0  0
  1 11  1  0  0  0  0
  2 12  1  0  0  0  0
  2 13  1  0  0  0  0
  3 14  1  0  0  0  0
  3 15  1  0  0  0  0
  4 16  1  0  0  0  0
  4 17  1  0  0  0  0
  8 18  1  0  0  0  0
  8 19  1  0  0  0  0
  8 20  1  0  0  0  0
M  END
