 xtb: 6.7.1 (edcfbbe)
          04112516113D

 17 16  0     0  0            999 V2000
   -2.3509   -0.8633   -0.4144 C   0  0  0  0  0  0  0  0  0  0  0  0
   -1.7731    0.1698    0.5471 C   0  0  0  0  0  0  0  0  0  0  0  0
   -0.8673    1.1893   -0.1648 C   0  0  0  0  0  0  0  0  0  0  0  0
    0.5749    1.1799    0.3686 C   0  0  0  0  0  0  0  0  0  0  0  0
    1.2252   -0.1465    0.0897 C   0  0  0  0  0  0  0  0  0  0  0  0
    1.3399   -1.0480    0.8940 O   0  0  0  0  0  0  0  0  0  0  0  0
    1.6590   -0.2474   -1.1569 O   0  0  0  0  0  0  0  0  0  0  0  0
   -2.9413   -0.3787   -1.1885 H   0  0  0  0  0  0  0  0  0  0  0  0
   -1.5521   -1.4283   -0.8899 H   0  0  0  0  0  0  0  0  0  0  0  0
   -2.9898   -1.5629    0.1190 H   0  0  0  0  0  0  0  0  0  0  0  0
   -1.2016   -0.3516    1.3178 H   0  0  0  0  0  0  0  0  0  0  0  0
   -2.5944    0.6868    1.0451 H   0  0  0  0  0  0  0  0  0  0  0  0
   -0.8418    0.9781   -1.2350 H   0  0  0  0  0  0  0  0  0  0  0  0
   -1.2605    2.1972   -0.0354 H   0  0  0  0  0  0  0  0  0  0  0  0
    0.5762    1.3529    1.4442 H   0  0  0  0  0  0  0  0  0  0  0  0
    1.1494    1.9554   -0.1373 H   0  0  0  0  0  0  0  0  0  0  0  0
    2.0791   -1.1086   -1.3448 H   0  0  0  0  0  0  0  0  0  0  0  0
  1  2  1  0  0  0  0
  2  3  1  0  0  0  0
  3  4  1  0  0  0  0
  4  5  1  0  0  0  0
  5  6  2  0  0  0  0
  5  7  1  0  0  0  0
  1  8  1  0  0  0  0
  1  9  1  0  0  0  0
  1 10  1  0  0  0  0
  2 11  1  0  0  0  0
  2 12  1  0  0  0  0
  3 13  1  0  0  0  0
  3 14  1  0  0  0  0
  4 15  1  0  0  0  0
  4 16  1  0  0  0  0
  7 17  1  0  0  0  0
M  END
