 xtb: 6.7.1 (edcfbbe)
          04112516293D

 20 19  0     0  0            999 V2000
   -1.9722   -1.2701   -0.4141 C   0  0  0  0  0  0  0  0  0  0  0  0
   -2.2225    0.2337   -0.4641 C   0  0  0  0  0  0  0  0  0  0  0  0
   -1.6599    0.9866    0.7456 C   0  0  0  0  0  0  0  0  0  0  0  0
   -0.1685    1.2982    0.6547 C   0  0  0  0  0  0  0  0  0  0  0  0
    0.6289    0.1136    0.7927 O   0  0  0  0  0  0  0  0  0  0  0  0
    1.4435   -0.2419   -0.1918 C   0  0  0  0  0  0  0  0  0  0  0  0
    1.5722    0.3846   -1.2247 O   0  0  0  0  0  0  0  0  0  0  0  0
    2.1821   -1.5063    0.1347 C   0  0  0  0  0  0  0  0  0  0  0  0
   -2.3738   -1.6913    0.5046 H   0  0  0  0  0  0  0  0  0  0  0  0
   -2.4555   -1.7582   -1.2572 H   0  0  0  0  0  0  0  0  0  0  0  0
   -0.9101   -1.4945   -0.4583 H   0  0  0  0  0  0  0  0  0  0  0  0
   -1.7891    0.6445   -1.3791 H   0  0  0  0  0  0  0  0  0  0  0  0
   -3.3002    0.4027   -0.5039 H   0  0  0  0  0  0  0  0  0  0  0  0
   -2.1696    1.9464    0.8370 H   0  0  0  0  0  0  0  0  0  0  0  0
   -1.8452    0.4123    1.6541 H   0  0  0  0  0  0  0  0  0  0  0  0
    0.0767    1.7727   -0.3008 H   0  0  0  0  0  0  0  0  0  0  0  0
    0.1276    1.9555    1.4766 H   0  0  0  0  0  0  0  0  0  0  0  0
    3.2483   -1.2949    0.1523 H   0  0  0  0  0  0  0  0  0  0  0  0
    2.0018   -2.2360   -0.6508 H   0  0  0  0  0  0  0  0  0  0  0  0
    1.8568   -1.8896    1.0956 H   0  0  0  0  0  0  0  0  0  0  0  0
  1  2  1  0  0  0  0
  2  3  1  0  0  0  0
  3  4  1  0  0  0  0
  4  5  1  0  0  0  0
  5  6  1  0  0  0  0
  6  7  2  0  0  0  0
  6  8  1  0  0  0  0
  1  9  1  0  0  0  0
  1 10  1  0  0  0  0
  1 11  1  0  0  0  0
  2 12  1  0  0  0  0
  2 13  1  0  0  0  0
  3 14  1  0  0  0  0
  3 15  1  0  0  0  0
  4 16  1  0  0  0  0
  4 17  1  0  0  0  0
  8 18  1  0  0  0  0
  8 19  1  0  0  0  0
  8 20  1  0  0  0  0
M  END
