 xtb: 6.7.1 (edcfbbe)
          04112516093D

 19 18  0     0  0            999 V2000
    2.9767   -0.2622   -0.4782 C   0  0  0  0  0  0  0  0  0  0  0  0
    2.1823    0.6896    0.4085 C   0  0  0  0  0  0  0  0  0  0  0  0
    0.7633    0.2016    0.7013 C   0  0  0  0  0  0  0  0  0  0  0  0
   -0.1247    0.1742   -0.5531 C   0  0  0  0  0  0  0  0  0  0  0  0
   -1.5182   -0.2403   -0.1536 C   0  0  0  0  0  0  0  0  0  0  0  0
   -1.8414   -1.4099   -0.0664 O   0  0  0  0  0  0  0  0  0  0  0  0
   -2.4610    0.8840    0.1519 C   0  0  0  0  0  0  0  0  0  0  0  0
    2.9875   -1.2616   -0.0488 H   0  0  0  0  0  0  0  0  0  0  0  0
    2.5484   -0.3201   -1.4752 H   0  0  0  0  0  0  0  0  0  0  0  0
    4.0037    0.0820   -0.5716 H   0  0  0  0  0  0  0  0  0  0  0  0
    2.1357    1.6729   -0.0633 H   0  0  0  0  0  0  0  0  0  0  0  0
    2.7042    0.8023    1.3611 H   0  0  0  0  0  0  0  0  0  0  0  0
    0.3108    0.8629    1.4435 H   0  0  0  0  0  0  0  0  0  0  0  0
    0.8003   -0.8026    1.1293 H   0  0  0  0  0  0  0  0  0  0  0  0
   -0.1372    1.1615   -1.0125 H   0  0  0  0  0  0  0  0  0  0  0  0
    0.2715   -0.5591   -1.2553 H   0  0  0  0  0  0  0  0  0  0  0  0
   -2.7245    1.3748   -0.7830 H   0  0  0  0  0  0  0  0  0  0  0  0
   -3.3643    0.5086    0.6244 H   0  0  0  0  0  0  0  0  0  0  0  0
   -1.9748    1.6171    0.7892 H   0  0  0  0  0  0  0  0  0  0  0  0
  1  2  1  0  0  0  0
  2  3  1  0  0  0  0
  3  4  1  0  0  0  0
  4  5  1  0  0  0  0
  5  6  2  0  0  0  0
  5  7  1  0  0  0  0
  1  8  1  0  0  0  0
  1  9  1  0  0  0  0
  1 10  1  0  0  0  0
  2 11  1  0  0  0  0
  2 12  1  0  0  0  0
  3 13  1  0  0  0  0
  3 14  1  0  0  0  0
  4 15  1  0  0  0  0
  4 16  1  0  0  0  0
  7 17  1  0  0  0  0
  7 18  1  0  0  0  0
  7 19  1  0  0  0  0
M  END
