 xtb: 6.7.1 (edcfbbe)
          04112514083D

 16 15  0     0  0            999 V2000
   -1.6150   -1.2604    0.1333 C   0  0  0  0  0  0  0  0  0  0  0  0
   -1.3840   -0.0458   -0.5565 O   0  0  0  0  0  0  0  0  0  0  0  0
   -0.8747    1.0018    0.2537 C   0  0  0  0  0  0  0  0  0  0  0  0
    0.6469    1.1823    0.1244 C   0  0  0  0  0  0  0  0  0  0  0  0
    1.3831    0.0491    0.5572 O   0  0  0  0  0  0  0  0  0  0  0  0
    1.8297   -0.7938   -0.4890 C   0  0  0  0  0  0  0  0  0  0  0  0
   -1.9211   -1.9800   -0.6226 H   0  0  0  0  0  0  0  0  0  0  0  0
   -2.4169   -1.1373    0.8692 H   0  0  0  0  0  0  0  0  0  0  0  0
   -0.7139   -1.6137    0.6410 H   0  0  0  0  0  0  0  0  0  0  0  0
   -1.3560    1.9229   -0.0878 H   0  0  0  0  0  0  0  0  0  0  0  0
   -1.1347    0.8255    1.3021 H   0  0  0  0  0  0  0  0  0  0  0  0
    0.9460    2.0140    0.7692 H   0  0  0  0  0  0  0  0  0  0  0  0
    0.9004    1.4205   -0.9133 H   0  0  0  0  0  0  0  0  0  0  0  0
    1.0009   -1.1320   -1.1160 H   0  0  0  0  0  0  0  0  0  0  0  0
    2.3008   -1.6466   -0.0055 H   0  0  0  0  0  0  0  0  0  0  0  0
    2.5640   -0.2740   -1.1137 H   0  0  0  0  0  0  0  0  0  0  0  0
  1  2  1  0  0  0  0
  2  3  1  0  0  0  0
  3  4  1  0  0  0  0
  4  5  1  0  0  0  0
  5  6  1  0  0  0  0
  1  7  1  0  0  0  0
  1  8  1  0  0  0  0
  1  9  1  0  0  0  0
  3 10  1  0  0  0  0
  3 11  1  0  0  0  0
  4 12  1  0  0  0  0
  4 13  1  0  0  0  0
  6 14  1  0  0  0  0
  6 15  1  0  0  0  0
  6 16  1  0  0  0  0
M  END
