 xtb: 6.7.1 (edcfbbe)
          04112516293D

 20 19  0     0  0            999 V2000
   -3.2232   -0.6277   -0.1791 C   0  0  0  0  0  0  0  0  0  0  0  0
   -2.0988   -0.2702    0.7864 C   0  0  0  0  0  0  0  0  0  0  0  0
   -1.2736    0.9318    0.3225 C   0  0  0  0  0  0  0  0  0  0  0  0
   -0.3801    0.6182   -0.8751 C   0  0  0  0  0  0  0  0  0  0  0  0
    0.5725   -0.4078   -0.5625 O   0  0  0  0  0  0  0  0  0  0  0  0
    1.7228   -0.0545   -0.0012 C   0  0  0  0  0  0  0  0  0  0  0  0
    2.0284    1.0967    0.2358 O   0  0  0  0  0  0  0  0  0  0  0  0
    2.5807   -1.2479    0.2954 C   0  0  0  0  0  0  0  0  0  0  0  0
   -3.8753    0.2282   -0.3364 H   0  0  0  0  0  0  0  0  0  0  0  0
   -2.8284   -0.9437   -1.1406 H   0  0  0  0  0  0  0  0  0  0  0  0
   -3.8175   -1.4427    0.2260 H   0  0  0  0  0  0  0  0  0  0  0  0
   -2.5295   -0.0354    1.7616 H   0  0  0  0  0  0  0  0  0  0  0  0
   -1.4373   -1.1296    0.9118 H   0  0  0  0  0  0  0  0  0  0  0  0
   -1.9354    1.7525    0.0440 H   0  0  0  0  0  0  0  0  0  0  0  0
   -0.6347    1.2752    1.1398 H   0  0  0  0  0  0  0  0  0  0  0  0
   -0.9544    0.2216   -1.7118 H   0  0  0  0  0  0  0  0  0  0  0  0
    0.1629    1.5173   -1.1827 H   0  0  0  0  0  0  0  0  0  0  0  0
    2.5221   -1.4571    1.3614 H   0  0  0  0  0  0  0  0  0  0  0  0
    3.6143   -1.0203    0.0527 H   0  0  0  0  0  0  0  0  0  0  0  0
    2.2260   -2.1073   -0.2629 H   0  0  0  0  0  0  0  0  0  0  0  0
  1  2  1  0  0  0  0
  2  3  1  0  0  0  0
  3  4  1  0  0  0  0
  4  5  1  0  0  0  0
  5  6  1  0  0  0  0
  6  7  2  0  0  0  0
  6  8  1  0  0  0  0
  1  9  1  0  0  0  0
  1 10  1  0  0  0  0
  1 11  1  0  0  0  0
  2 12  1  0  0  0  0
  2 13  1  0  0  0  0
  3 14  1  0  0  0  0
  3 15  1  0  0  0  0
  4 16  1  0  0  0  0
  4 17  1  0  0  0  0
  8 18  1  0  0  0  0
  8 19  1  0  0  0  0
  8 20  1  0  0  0  0
M  END
