 xtb: 6.7.1 (edcfbbe)
          04112517153D

 20 19  0     0  0            999 V2000
   -3.3443    0.4921    0.7573 C   0  0  0  0  0  0  0  0  0  0  0  0
   -2.8073   -0.5551   -0.2124 C   0  0  0  0  0  0  0  0  0  0  0  0
   -1.4093   -0.2266   -0.7349 C   0  0  0  0  0  0  0  0  0  0  0  0
   -0.3434   -0.2698    0.3568 C   0  0  0  0  0  0  0  0  0  0  0  0
    1.0469   -0.1336   -0.2035 C   0  0  0  0  0  0  0  0  0  0  0  0
    1.3395   -0.1192   -1.3798 O   0  0  0  0  0  0  0  0  0  0  0  0
    1.9519   -0.0347    0.7689 O   0  0  0  0  0  0  0  0  0  0  0  0
    3.3236    0.0863    0.3828 C   0  0  0  0  0  0  0  0  0  0  0  0
   -4.3730    0.2629    1.0240 H   0  0  0  0  0  0  0  0  0  0  0  0
   -2.7566    0.5189    1.6706 H   0  0  0  0  0  0  0  0  0  0  0  0
   -3.3207    1.4788    0.3005 H   0  0  0  0  0  0  0  0  0  0  0  0
   -2.7900   -1.5306    0.2775 H   0  0  0  0  0  0  0  0  0  0  0  0
   -3.4834   -0.6260   -1.0664 H   0  0  0  0  0  0  0  0  0  0  0  0
   -1.4114    0.7635   -1.1949 H   0  0  0  0  0  0  0  0  0  0  0  0
   -1.1347   -0.9421   -1.5128 H   0  0  0  0  0  0  0  0  0  0  0  0
   -0.3859   -1.2204    0.8936 H   0  0  0  0  0  0  0  0  0  0  0  0
   -0.4848    0.5254    1.0891 H   0  0  0  0  0  0  0  0  0  0  0  0
    3.4650    0.9894   -0.2121 H   0  0  0  0  0  0  0  0  0  0  0  0
    3.6222   -0.7791   -0.2100 H   0  0  0  0  0  0  0  0  0  0  0  0
    3.8847    0.1374    1.3104 H   0  0  0  0  0  0  0  0  0  0  0  0
  1  2  1  0  0  0  0
  2  3  1  0  0  0  0
  3  4  1  0  0  0  0
  4  5  1  0  0  0  0
  5  6  2  0  0  0  0
  5  7  1  0  0  0  0
  7  8  1  0  0  0  0
  1  9  1  0  0  0  0
  1 10  1  0  0  0  0
  1 11  1  0  0  0  0
  2 12  1  0  0  0  0
  2 13  1  0  0  0  0
  3 14  1  0  0  0  0
  3 15  1  0  0  0  0
  4 16  1  0  0  0  0
  4 17  1  0  0  0  0
  8 18  1  0  0  0  0
  8 19  1  0  0  0  0
  8 20  1  0  0  0  0
M  END
