 xtb: 6.7.1 (edcfbbe)
          04112517153D

 20 19  0     0  0            999 V2000
   -3.3211   -0.8584    0.2274 C   0  0  0  0  0  0  0  0  0  0  0  0
   -1.9188   -0.5797   -0.3001 C   0  0  0  0  0  0  0  0  0  0  0  0
   -1.5036    0.8694   -0.0547 C   0  0  0  0  0  0  0  0  0  0  0  0
   -0.1121    1.1679   -0.6191 C   0  0  0  0  0  0  0  0  0  0  0  0
    0.9510    0.4114    0.1335 C   0  0  0  0  0  0  0  0  0  0  0  0
    1.0721    0.3871    1.3402 O   0  0  0  0  0  0  0  0  0  0  0  0
    1.7679   -0.2387   -0.6895 O   0  0  0  0  0  0  0  0  0  0  0  0
    2.8401   -0.9844   -0.1069 C   0  0  0  0  0  0  0  0  0  0  0  0
   -3.3673   -0.6730    1.2981 H   0  0  0  0  0  0  0  0  0  0  0  0
   -4.0460   -0.2142   -0.2643 H   0  0  0  0  0  0  0  0  0  0  0  0
   -3.5990   -1.8932    0.0451 H   0  0  0  0  0  0  0  0  0  0  0  0
   -1.2053   -1.2453    0.1929 H   0  0  0  0  0  0  0  0  0  0  0  0
   -1.8841   -0.7899   -1.3712 H   0  0  0  0  0  0  0  0  0  0  0  0
   -1.4955    1.0679    1.0190 H   0  0  0  0  0  0  0  0  0  0  0  0
   -2.2271    1.5383   -0.5221 H   0  0  0  0  0  0  0  0  0  0  0  0
    0.1044    2.2316   -0.5036 H   0  0  0  0  0  0  0  0  0  0  0  0
   -0.0473    0.9021   -1.6736 H   0  0  0  0  0  0  0  0  0  0  0  0
    2.4413   -1.7706    0.5353 H   0  0  0  0  0  0  0  0  0  0  0  0
    3.4710   -0.3252    0.4905 H   0  0  0  0  0  0  0  0  0  0  0  0
    3.3923   -1.4045   -0.9413 H   0  0  0  0  0  0  0  0  0  0  0  0
  1  2  1  0  0  0  0
  2  3  1  0  0  0  0
  3  4  1  0  0  0  0
  4  5  1  0  0  0  0
  5  6  2  0  0  0  0
  5  7  1  0  0  0  0
  7  8  1  0  0  0  0
  1  9  1  0  0  0  0
  1 10  1  0  0  0  0
  1 11  1  0  0  0  0
  2 12  1  0  0  0  0
  2 13  1  0  0  0  0
  3 14  1  0  0  0  0
  3 15  1  0  0  0  0
  4 16  1  0  0  0  0
  4 17  1  0  0  0  0
  8 18  1  0  0  0  0
  8 19  1  0  0  0  0
  8 20  1  0  0  0  0
M  END
