 xtb: 6.7.1 (edcfbbe)
          04112516263D

 20 19  0     0  0            999 V2000
   -3.2142   -1.0548   -0.0086 C   0  0  0  0  0  0  0  0  0  0  0  0
   -2.7238    0.3226    0.4227 C   0  0  0  0  0  0  0  0  0  0  0  0
   -1.2123    0.3807    0.6432 C   0  0  0  0  0  0  0  0  0  0  0  0
   -0.4188    0.1831   -0.6579 C   0  0  0  0  0  0  0  0  0  0  0  0
    1.0444    0.3640   -0.3645 C   0  0  0  0  0  0  0  0  0  0  0  0
    1.6572    1.4060   -0.4740 O   0  0  0  0  0  0  0  0  0  0  0  0
    1.5987   -0.7606    0.0747 O   0  0  0  0  0  0  0  0  0  0  0  0
    2.9785   -0.7187    0.4468 C   0  0  0  0  0  0  0  0  0  0  0  0
   -2.8915   -1.8123    0.7017 H   0  0  0  0  0  0  0  0  0  0  0  0
   -4.3001   -1.0672   -0.0535 H   0  0  0  0  0  0  0  0  0  0  0  0
   -2.8331   -1.3163   -0.9917 H   0  0  0  0  0  0  0  0  0  0  0  0
   -3.0079    1.0634   -0.3268 H   0  0  0  0  0  0  0  0  0  0  0  0
   -3.2124    0.5952    1.3602 H   0  0  0  0  0  0  0  0  0  0  0  0
   -0.9171   -0.3892    1.3587 H   0  0  0  0  0  0  0  0  0  0  0  0
   -0.9501    1.3540    1.0648 H   0  0  0  0  0  0  0  0  0  0  0  0
   -0.7240    0.9272   -1.3930 H   0  0  0  0  0  0  0  0  0  0  0  0
   -0.5780   -0.8221   -1.0430 H   0  0  0  0  0  0  0  0  0  0  0  0
    3.2460   -1.7405    0.6963 H   0  0  0  0  0  0  0  0  0  0  0  0
    3.1129   -0.0579    1.3039 H   0  0  0  0  0  0  0  0  0  0  0  0
    3.5778   -0.3466   -0.3849 H   0  0  0  0  0  0  0  0  0  0  0  0
  1  2  1  0  0  0  0
  2  3  1  0  0  0  0
  3  4  1  0  0  0  0
  4  5  1  0  0  0  0
  5  6  2  0  0  0  0
  5  7  1  0  0  0  0
  7  8  1  0  0  0  0
  1  9  1  0  0  0  0
  1 10  1  0  0  0  0
  1 11  1  0  0  0  0
  2 12  1  0  0  0  0
  2 13  1  0  0  0  0
  3 14  1  0  0  0  0
  3 15  1  0  0  0  0
  4 16  1  0  0  0  0
  4 17  1  0  0  0  0
  8 18  1  0  0  0  0
  8 19  1  0  0  0  0
  8 20  1  0  0  0  0
M  END
