 xtb: 6.7.1 (edcfbbe)
          04112516113D

 17 16  0     0  0            999 V2000
   -2.5716    0.0724    0.9441 C   0  0  0  0  0  0  0  0  0  0  0  0
   -1.8236   -0.5251   -0.2435 C   0  0  0  0  0  0  0  0  0  0  0  0
   -0.9581    0.4920   -0.9899 C   0  0  0  0  0  0  0  0  0  0  0  0
    0.2418    0.9778   -0.1768 C   0  0  0  0  0  0  0  0  0  0  0  0
    1.2939   -0.0891    0.0023 C   0  0  0  0  0  0  0  0  0  0  0  0
    1.3152   -1.1418   -0.5917 O   0  0  0  0  0  0  0  0  0  0  0  0
    2.2678    0.1960    0.8709 O   0  0  0  0  0  0  0  0  0  0  0  0
   -3.1559    0.9340    0.6291 H   0  0  0  0  0  0  0  0  0  0  0  0
   -3.2496   -0.6655    1.3655 H   0  0  0  0  0  0  0  0  0  0  0  0
   -1.8893    0.3829    1.7309 H   0  0  0  0  0  0  0  0  0  0  0  0
   -2.5518   -0.9329   -0.9473 H   0  0  0  0  0  0  0  0  0  0  0  0
   -1.1939   -1.3530    0.0892 H   0  0  0  0  0  0  0  0  0  0  0  0
   -0.5868    0.0270   -1.9053 H   0  0  0  0  0  0  0  0  0  0  0  0
   -1.5714    1.3512   -1.2656 H   0  0  0  0  0  0  0  0  0  0  0  0
   -0.0818    1.3341    0.8018 H   0  0  0  0  0  0  0  0  0  0  0  0
    0.7195    1.8106   -0.6997 H   0  0  0  0  0  0  0  0  0  0  0  0
    2.1758    1.0678    1.2965 H   0  0  0  0  0  0  0  0  0  0  0  0
  1  2  1  0  0  0  0
  2  3  1  0  0  0  0
  3  4  1  0  0  0  0
  4  5  1  0  0  0  0
  5  6  2  0  0  0  0
  5  7  1  0  0  0  0
  1  8  1  0  0  0  0
  1  9  1  0  0  0  0
  1 10  1  0  0  0  0
  2 11  1  0  0  0  0
  2 12  1  0  0  0  0
  3 13  1  0  0  0  0
  3 14  1  0  0  0  0
  4 15  1  0  0  0  0
  4 16  1  0  0  0  0
  7 17  1  0  0  0  0
M  END
