 xtb: 6.7.1 (edcfbbe)
          04112516153D

 26 25  0     0  0            999 V2000
    1.6040   -1.1389   -1.7812 C   0  0  0  0  0  0  0  0  0  0  0  0
    1.9442   -0.6268   -0.3801 C   0  0  0  0  0  0  0  0  0  0  0  0
    3.4183   -0.8474   -0.0676 C   0  0  0  0  0  0  0  0  0  0  0  0
    1.0730   -1.2801    0.6448 C   0  0  0  0  0  0  0  0  0  0  0  0
   -0.1763   -1.2240    0.8165 N   0  0  0  0  0  0  0  0  0  0  0  0
   -0.8929   -0.4278   -0.0972 O   0  0  0  0  0  0  0  0  0  0  0  0
   -2.1809   -0.1414    0.2917 C   0  0  0  0  0  0  0  0  0  0  0  0
   -2.6598   -0.4745    1.3540 O   0  0  0  0  0  0  0  0  0  0  0  0
   -2.7771    0.5579   -0.6734 N   0  0  0  0  0  0  0  0  0  0  0  0
   -4.1317    1.0513   -0.5625 C   0  0  0  0  0  0  0  0  0  0  0  0
    1.5885    1.2060   -0.4073 S   0  0  0  0  0  0  0  0  0  0  0  0
    1.6416    1.6461    1.3522 C   0  0  0  0  0  0  0  0  0  0  0  0
    0.5479   -0.9958   -1.9927 H   0  0  0  0  0  0  0  0  0  0  0  0
    2.1855   -0.5918   -2.5184 H   0  0  0  0  0  0  0  0  0  0  0  0
    1.8394   -2.1983   -1.8517 H   0  0  0  0  0  0  0  0  0  0  0  0
    3.6660   -0.4943    0.9307 H   0  0  0  0  0  0  0  0  0  0  0  0
    4.0296   -0.3102   -0.7881 H   0  0  0  0  0  0  0  0  0  0  0  0
    3.6538   -1.9077   -0.1270 H   0  0  0  0  0  0  0  0  0  0  0  0
    1.5572   -1.9059    1.3833 H   0  0  0  0  0  0  0  0  0  0  0  0
   -2.2417    0.7951   -1.4951 H   0  0  0  0  0  0  0  0  0  0  0  0
   -4.1396    2.1403   -0.5845 H   0  0  0  0  0  0  0  0  0  0  0  0
   -4.5371    0.7041    0.3855 H   0  0  0  0  0  0  0  0  0  0  0  0
   -4.7365    0.6646   -1.3812 H   0  0  0  0  0  0  0  0  0  0  0  0
    0.8378    1.1451    1.8854 H   0  0  0  0  0  0  0  0  0  0  0  0
    1.4974    2.7208    1.3886 H   0  0  0  0  0  0  0  0  0  0  0  0
    2.6082    1.3874    1.7719 H   0  0  0  0  0  0  0  0  0  0  0  0
  1  2  1  0  0  0  0
  2  3  1  0  0  0  0
  2  4  1  0  0  0  0
  4  5  2  0  0  0  0
  5  6  1  0  0  0  0
  6  7  1  0  0  0  0
  7  8  2  0  0  0  0
  7  9  4  0  0  0  0
  9 10  1  0  0  0  0
  2 11  1  0  0  0  0
 11 12  1  0  0  0  0
  1 13  1  0  0  0  0
  1 14  1  0  0  0  0
  1 15  1  0  0  0  0
  3 16  1  0  0  0  0
  3 17  1  0  0  0  0
  3 18  1  0  0  0  0
  4 19  1  0  0  0  0
  9 20  1  0  0  0  0
 10 21  1  0  0  0  0
 10 22  1  0  0  0  0
 10 23  1  0  0  0  0
 12 24  1  0  0  0  0
 12 25  1  0  0  0  0
 12 26  1  0  0  0  0
M  END
