 xtb: 6.7.1 (edcfbbe)
          04112516113D

 17 16  0     0  0            999 V2000
   -1.8475   -1.0170   -0.4309 C   0  0  0  0  0  0  0  0  0  0  0  0
   -2.0888    0.4438   -0.0697 C   0  0  0  0  0  0  0  0  0  0  0  0
   -0.9419    1.0655    0.7280 C   0  0  0  0  0  0  0  0  0  0  0  0
    0.3673    1.1281   -0.0633 C   0  0  0  0  0  0  0  0  0  0  0  0
    1.1625   -0.1525    0.0252 C   0  0  0  0  0  0  0  0  0  0  0  0
    1.1202   -0.9149    0.9628 O   0  0  0  0  0  0  0  0  0  0  0  0
    1.9887   -0.4071   -0.9926 O   0  0  0  0  0  0  0  0  0  0  0  0
   -1.6301   -1.5988    0.4625 H   0  0  0  0  0  0  0  0  0  0  0  0
   -2.7258   -1.4380   -0.9140 H   0  0  0  0  0  0  0  0  0  0  0  0
   -1.0037   -1.1250   -1.1090 H   0  0  0  0  0  0  0  0  0  0  0  0
   -2.9982    0.5117    0.5302 H   0  0  0  0  0  0  0  0  0  0  0  0
   -2.2514    1.0218   -0.9823 H   0  0  0  0  0  0  0  0  0  0  0  0
   -1.2302    2.0752    1.0222 H   0  0  0  0  0  0  0  0  0  0  0  0
   -0.7694    0.4821    1.6348 H   0  0  0  0  0  0  0  0  0  0  0  0
    1.0084    1.9049    0.3625 H   0  0  0  0  0  0  0  0  0  0  0  0
    0.1657    1.3821   -1.1047 H   0  0  0  0  0  0  0  0  0  0  0  0
    1.9864    0.2774   -1.6862 H   0  0  0  0  0  0  0  0  0  0  0  0
  1  2  1  0  0  0  0
  2  3  1  0  0  0  0
  3  4  1  0  0  0  0
  4  5  1  0  0  0  0
  5  6  2  0  0  0  0
  5  7  1  0  0  0  0
  1  8  1  0  0  0  0
  1  9  1  0  0  0  0
  1 10  1  0  0  0  0
  2 11  1  0  0  0  0
  2 12  1  0  0  0  0
  3 13  1  0  0  0  0
  3 14  1  0  0  0  0
  4 15  1  0  0  0  0
  4 16  1  0  0  0  0
  7 17  1  0  0  0  0
M  END
