 xtb: 6.7.1 (edcfbbe)
          04112517493D

 26 26  0     0  0            999 V2000
   -4.5155   -0.8584    0.6232 C   0  0  0  0  0  0  0  0  0  0  0  0
   -3.0757   -0.3812    0.7644 C   0  0  0  0  0  0  0  0  0  0  0  0
   -2.3928   -0.2266   -0.6002 C   0  0  0  0  0  0  0  0  0  0  0  0
   -0.9766    0.2462   -0.4384 C   0  0  0  0  0  0  0  0  0  0  0  0
   -0.6710    1.5953   -0.4323 C   0  0  0  0  0  0  0  0  0  0  0  0
    0.6342    2.0207   -0.2410 C   0  0  0  0  0  0  0  0  0  0  0  0
    1.6539    1.1067   -0.0497 C   0  0  0  0  0  0  0  0  0  0  0  0
    1.3562   -0.2685   -0.0504 C   0  0  0  0  0  0  0  0  0  0  0  0
    0.0477   -0.6765   -0.2432 C   0  0  0  0  0  0  0  0  0  0  0  0
    2.4233   -1.1042    0.1443 O   0  0  0  0  0  0  0  0  0  0  0  0
    2.1897   -2.4974    0.1520 C   0  0  0  0  0  0  0  0  0  0  0  0
    2.9537    1.4773    0.1402 O   0  0  0  0  0  0  0  0  0  0  0  0
   -4.5501   -1.8236    0.1230 H   0  0  0  0  0  0  0  0  0  0  0  0
   -4.9803   -0.9605    1.6007 H   0  0  0  0  0  0  0  0  0  0  0  0
   -5.0961   -0.1488    0.0383 H   0  0  0  0  0  0  0  0  0  0  0  0
   -2.5092   -1.0933    1.3682 H   0  0  0  0  0  0  0  0  0  0  0  0
   -3.0549    0.5797    1.2827 H   0  0  0  0  0  0  0  0  0  0  0  0
   -2.9551    0.4915   -1.1995 H   0  0  0  0  0  0  0  0  0  0  0  0
   -2.4077   -1.1884   -1.1163 H   0  0  0  0  0  0  0  0  0  0  0  0
   -1.4510    2.3261   -0.5804 H   0  0  0  0  0  0  0  0  0  0  0  0
    0.8618    3.0766   -0.2419 H   0  0  0  0  0  0  0  0  0  0  0  0
   -0.1953   -1.7271   -0.2477 H   0  0  0  0  0  0  0  0  0  0  0  0
    3.1652   -2.9483    0.3192 H   0  0  0  0  0  0  0  0  0  0  0  0
    1.7872   -2.8362   -0.8066 H   0  0  0  0  0  0  0  0  0  0  0  0
    1.5103   -2.7801    0.9608 H   0  0  0  0  0  0  0  0  0  0  0  0
    3.0275    2.4436    0.1175 H   0  0  0  0  0  0  0  0  0  0  0  0
  1  2  1  0  0  0  0
  2  3  1  0  0  0  0
  3  4  1  0  0  0  0
  4  5  4  0  0  0  0
  5  6  4  0  0  0  0
  6  7  4  0  0  0  0
  7  8  4  0  0  0  0
  4  9  4  0  0  0  0
  8  9  4  0  0  0  0
  8 10  1  0  0  0  0
 10 11  1  0  0  0  0
  7 12  1  0  0  0  0
  1 13  1  0  0  0  0
  1 14  1  0  0  0  0
  1 15  1  0  0  0  0
  2 16  1  0  0  0  0
  2 17  1  0  0  0  0
  3 18  1  0  0  0  0
  3 19  1  0  0  0  0
  5 20  1  0  0  0  0
  6 21  1  0  0  0  0
  9 22  1  0  0  0  0
 11 23  1  0  0  0  0
 11 24  1  0  0  0  0
 11 25  1  0  0  0  0
 12 26  1  0  0  0  0
M  END
