 xtb: 6.7.1 (edcfbbe)
          04112516123D

 19 18  0     0  0            999 V2000
   -3.1259   -0.8100   -0.2086 C   0  0  0  0  0  0  0  0  0  0  0  0
   -2.1413    0.1886    0.3881 C   0  0  0  0  0  0  0  0  0  0  0  0
   -0.7693    0.0985   -0.2757 C   0  0  0  0  0  0  0  0  0  0  0  0
    0.2211    1.0979    0.3163 C   0  0  0  0  0  0  0  0  0  0  0  0
    1.6058    0.9861   -0.3326 C   0  0  0  0  0  0  0  0  0  0  0  0
    2.2256   -0.2940   -0.0560 C   0  0  0  0  0  0  0  0  0  0  0  0
    2.7251   -1.3537    0.1899 C   0  0  0  0  0  0  0  0  0  0  0  0
   -4.0943   -0.7316    0.2795 H   0  0  0  0  0  0  0  0  0  0  0  0
   -2.7583   -1.8261   -0.0838 H   0  0  0  0  0  0  0  0  0  0  0  0
   -3.2602   -0.6236   -1.2718 H   0  0  0  0  0  0  0  0  0  0  0  0
   -2.5344    1.2011    0.2691 H   0  0  0  0  0  0  0  0  0  0  0  0
   -2.0359   -0.0015    1.4587 H   0  0  0  0  0  0  0  0  0  0  0  0
   -0.8757    0.2848   -1.3475 H   0  0  0  0  0  0  0  0  0  0  0  0
   -0.3721   -0.9122   -0.1536 H   0  0  0  0  0  0  0  0  0  0  0  0
    0.3124    0.9239    1.3910 H   0  0  0  0  0  0  0  0  0  0  0  0
   -0.1551    2.1129    0.1705 H   0  0  0  0  0  0  0  0  0  0  0  0
    2.2569    1.7768    0.0496 H   0  0  0  0  0  0  0  0  0  0  0  0
    1.5168    1.1081   -1.4155 H   0  0  0  0  0  0  0  0  0  0  0  0
    3.1695   -2.2804    0.3983 H   0  0  0  0  0  0  0  0  0  0  0  0
  1  2  1  0  0  0  0
  2  3  1  0  0  0  0
  3  4  1  0  0  0  0
  4  5  1  0  0  0  0
  5  6  1  0  0  0  0
  6  7  3  0  0  0  0
  1  8  1  0  0  0  0
  1  9  1  0  0  0  0
  1 10  1  0  0  0  0
  2 11  1  0  0  0  0
  2 12  1  0  0  0  0
  3 13  1  0  0  0  0
  3 14  1  0  0  0  0
  4 15  1  0  0  0  0
  4 16  1  0  0  0  0
  5 17  1  0  0  0  0
  5 18  1  0  0  0  0
  7 19  1  0  0  0  0
M  END
