 xtb: 6.7.1 (edcfbbe)
          04112516263D

 20 19  0     0  0            999 V2000
   -3.5946   -0.8899    0.6467 C   0  0  0  0  0  0  0  0  0  0  0  0
   -2.6721    0.0113   -0.1655 C   0  0  0  0  0  0  0  0  0  0  0  0
   -1.2025   -0.2231    0.1803 C   0  0  0  0  0  0  0  0  0  0  0  0
   -0.2929    0.6876   -0.6417 C   0  0  0  0  0  0  0  0  0  0  0  0
    1.1764    0.5327   -0.3510 C   0  0  0  0  0  0  0  0  0  0  0  0
    2.0046    1.3938   -0.5747 O   0  0  0  0  0  0  0  0  0  0  0  0
    1.4865   -0.6502    0.1614 O   0  0  0  0  0  0  0  0  0  0  0  0
    2.8636   -0.9097    0.4457 C   0  0  0  0  0  0  0  0  0  0  0  0
   -3.3710   -1.9365    0.4547 H   0  0  0  0  0  0  0  0  0  0  0  0
   -3.4709   -0.7029    1.7107 H   0  0  0  0  0  0  0  0  0  0  0  0
   -4.6333   -0.7061    0.3840 H   0  0  0  0  0  0  0  0  0  0  0  0
   -2.8267   -0.1777   -1.2296 H   0  0  0  0  0  0  0  0  0  0  0  0
   -2.9255    1.0559    0.0264 H   0  0  0  0  0  0  0  0  0  0  0  0
   -0.9424   -1.2649   -0.0105 H   0  0  0  0  0  0  0  0  0  0  0  0
   -1.0435   -0.0312    1.2430 H   0  0  0  0  0  0  0  0  0  0  0  0
   -0.5469    1.7383   -0.4905 H   0  0  0  0  0  0  0  0  0  0  0  0
   -0.4224    0.4754   -1.7067 H   0  0  0  0  0  0  0  0  0  0  0  0
    3.3086   -0.0534    0.9539 H   0  0  0  0  0  0  0  0  0  0  0  0
    3.4038   -1.0914   -0.4841 H   0  0  0  0  0  0  0  0  0  0  0  0
    2.8736   -1.7920    1.0778 H   0  0  0  0  0  0  0  0  0  0  0  0
  1  2  1  0  0  0  0
  2  3  1  0  0  0  0
  3  4  1  0  0  0  0
  4  5  1  0  0  0  0
  5  6  2  0  0  0  0
  5  7  1  0  0  0  0
  7  8  1  0  0  0  0
  1  9  1  0  0  0  0
  1 10  1  0  0  0  0
  1 11  1  0  0  0  0
  2 12  1  0  0  0  0
  2 13  1  0  0  0  0
  3 14  1  0  0  0  0
  3 15  1  0  0  0  0
  4 16  1  0  0  0  0
  4 17  1  0  0  0  0
  8 18  1  0  0  0  0
  8 19  1  0  0  0  0
  8 20  1  0  0  0  0
M  END
