 xtb: 6.7.1 (edcfbbe)
          04112516263D

 20 19  0     0  0            999 V2000
   -3.4502   -0.4658   -0.4118 C   0  0  0  0  0  0  0  0  0  0  0  0
   -2.6919    0.1855    0.7390 C   0  0  0  0  0  0  0  0  0  0  0  0
   -1.2783    0.6253    0.3587 C   0  0  0  0  0  0  0  0  0  0  0  0
   -0.3553   -0.5597    0.0438 C   0  0  0  0  0  0  0  0  0  0  0  0
    1.0123   -0.0539   -0.3243 C   0  0  0  0  0  0  0  0  0  0  0  0
    1.2671    0.6215   -1.2998 O   0  0  0  0  0  0  0  0  0  0  0  0
    1.9309   -0.4182    0.5640 O   0  0  0  0  0  0  0  0  0  0  0  0
    3.2763    0.0136    0.3416 C   0  0  0  0  0  0  0  0  0  0  0  0
   -3.4534    0.1868   -1.2818 H   0  0  0  0  0  0  0  0  0  0  0  0
   -3.0003   -1.4141   -0.6928 H   0  0  0  0  0  0  0  0  0  0  0  0
   -4.4803   -0.6552   -0.1209 H   0  0  0  0  0  0  0  0  0  0  0  0
   -3.2423    1.0684    1.0696 H   0  0  0  0  0  0  0  0  0  0  0  0
   -2.6394   -0.5077    1.5804 H   0  0  0  0  0  0  0  0  0  0  0  0
   -0.8485    1.1942    1.1861 H   0  0  0  0  0  0  0  0  0  0  0  0
   -1.3155    1.2807   -0.5140 H   0  0  0  0  0  0  0  0  0  0  0  0
   -0.7501   -1.1097   -0.8103 H   0  0  0  0  0  0  0  0  0  0  0  0
   -0.2690   -1.2204    0.9052 H   0  0  0  0  0  0  0  0  0  0  0  0
    3.6235   -0.3370   -0.6309 H   0  0  0  0  0  0  0  0  0  0  0  0
    3.8605   -0.4212    1.1462 H   0  0  0  0  0  0  0  0  0  0  0  0
    3.3259    1.1027    0.3642 H   0  0  0  0  0  0  0  0  0  0  0  0
  1  2  1  0  0  0  0
  2  3  1  0  0  0  0
  3  4  1  0  0  0  0
  4  5  1  0  0  0  0
  5  6  2  0  0  0  0
  5  7  1  0  0  0  0
  7  8  1  0  0  0  0
  1  9  1  0  0  0  0
  1 10  1  0  0  0  0
  1 11  1  0  0  0  0
  2 12  1  0  0  0  0
  2 13  1  0  0  0  0
  3 14  1  0  0  0  0
  3 15  1  0  0  0  0
  4 16  1  0  0  0  0
  4 17  1  0  0  0  0
  8 18  1  0  0  0  0
  8 19  1  0  0  0  0
  8 20  1  0  0  0  0
M  END
