 xtb: 6.7.1 (edcfbbe)
          04112516203D

 17 16  0     0  0            999 V2000
   -4.2567   -0.8890    0.1581 C   0  0  0  0  0  0  0  0  0  0  0  0
   -2.9715   -0.4717   -0.5497 C   0  0  0  0  0  0  0  0  0  0  0  0
   -2.3208    0.7571    0.1098 C   0  0  0  0  0  0  0  0  0  0  0  0
   -0.8879    0.5039    0.5850 C   0  0  0  0  0  0  0  0  0  0  0  0
    0.0588    0.3694   -0.5917 C   0  0  0  0  0  0  0  0  0  0  0  0
    1.8974   -0.0179    0.0129 Br  0  0  0  0  0  0  0  0  0  0  0  0
   -4.9857   -0.0826    0.1363 H   0  0  0  0  0  0  0  0  0  0  0  0
   -4.0527   -1.1424    1.1960 H   0  0  0  0  0  0  0  0  0  0  0  0
   -4.6931   -1.7590   -0.3269 H   0  0  0  0  0  0  0  0  0  0  0  0
   -2.2788   -1.3150   -0.5285 H   0  0  0  0  0  0  0  0  0  0  0  0
   -3.1946   -0.2616   -1.5968 H   0  0  0  0  0  0  0  0  0  0  0  0
   -2.3204    1.6019   -0.5809 H   0  0  0  0  0  0  0  0  0  0  0  0
   -2.9115    1.0501    0.9784 H   0  0  0  0  0  0  0  0  0  0  0  0
   -0.5601    1.3345    1.2142 H   0  0  0  0  0  0  0  0  0  0  0  0
   -0.8581   -0.4051    1.1897 H   0  0  0  0  0  0  0  0  0  0  0  0
    0.1274    1.2925   -1.1646 H   0  0  0  0  0  0  0  0  0  0  0  0
   -0.2109   -0.4559   -1.2474 H   0  0  0  0  0  0  0  0  0  0  0  0
  1  2  1  0  0  0  0
  2  3  1  0  0  0  0
  3  4  1  0  0  0  0
  4  5  1  0  0  0  0
  5  6  1  0  0  0  0
  1  7  1  0  0  0  0
  1  8  1  0  0  0  0
  1  9  1  0  0  0  0
  2 10  1  0  0  0  0
  2 11  1  0  0  0  0
  3 12  1  0  0  0  0
  3 13  1  0  0  0  0
  4 14  1  0  0  0  0
  4 15  1  0  0  0  0
  5 16  1  0  0  0  0
  5 17  1  0  0  0  0
M  END
