 xtb: 6.7.1 (edcfbbe)
          04112514053D

 17 16  0     0  0            999 V2000
   -1.8878   -1.4117   -0.4857 C   0  0  0  0  0  0  0  0  0  0  0  0
   -1.5152    0.0559   -0.2921 C   0  0  0  0  0  0  0  0  0  0  0  0
   -2.7536    0.9086   -0.0323 C   0  0  0  0  0  0  0  0  0  0  0  0
   -0.5483    0.2057    0.8877 C   0  0  0  0  0  0  0  0  0  0  0  0
    0.6754   -0.5045    0.6792 O   0  0  0  0  0  0  0  0  0  0  0  0
    1.6302    0.0983   -0.0625 N   0  0  0  0  0  0  0  0  0  0  0  0
    2.6147   -0.5601   -0.2100 O   0  0  0  0  0  0  0  0  0  0  0  0
    1.4147    1.1940   -0.4822 O   0  0  0  0  0  0  0  0  0  0  0  0
   -2.5065   -1.5288   -1.3709 H   0  0  0  0  0  0  0  0  0  0  0  0
   -2.4430   -1.7752    0.3752 H   0  0  0  0  0  0  0  0  0  0  0  0
   -0.9971   -2.0244   -0.6041 H   0  0  0  0  0  0  0  0  0  0  0  0
   -1.0169    0.4245   -1.1953 H   0  0  0  0  0  0  0  0  0  0  0  0
   -2.4853    1.9568    0.0678 H   0  0  0  0  0  0  0  0  0  0  0  0
   -3.2513    0.5866    0.8785 H   0  0  0  0  0  0  0  0  0  0  0  0
   -3.4503    0.8099   -0.8595 H   0  0  0  0  0  0  0  0  0  0  0  0
   -0.3245    1.2604    1.0695 H   0  0  0  0  0  0  0  0  0  0  0  0
   -0.9600   -0.2522    1.7869 H   0  0  0  0  0  0  0  0  0  0  0  0
  1  2  1  0  0  0  0
  2  3  1  0  0  0  0
  2  4  1  0  0  0  0
  4  5  1  0  0  0  0
  5  6  1  0  0  0  0
  6  7  4  0  0  0  0
  6  8  4  0  0  0  0
  1  9  1  0  0  0  0
  1 10  1  0  0  0  0
  1 11  1  0  0  0  0
  2 12  1  0  0  0  0
  3 13  1  0  0  0  0
  3 14  1  0  0  0  0
  3 15  1  0  0  0  0
  4 16  1  0  0  0  0
  4 17  1  0  0  0  0
M  END
