 xtb: 6.7.1 (edcfbbe)
          04112518233D

 26 25  0     0  0            999 V2000
    1.6735   -0.3646   -1.7361 C   0  0  0  0  0  0  0  0  0  0  0  0
    1.9843   -0.6489   -0.2780 C   0  0  0  0  0  0  0  0  0  0  0  0
    3.0630   -1.7223   -0.1531 C   0  0  0  0  0  0  0  0  0  0  0  0
    0.8418   -0.9663    0.6223 C   0  0  0  0  0  0  0  0  0  0  0  0
   -0.4013   -0.7329    0.5825 N   0  0  0  0  0  0  0  0  0  0  0  0
   -0.9272   -0.0859   -0.5651 O   0  0  0  0  0  0  0  0  0  0  0  0
   -2.2905    0.0447   -0.5781 C   0  0  0  0  0  0  0  0  0  0  0  0
   -2.7730    0.6223   -1.5361 O   0  0  0  0  0  0  0  0  0  0  0  0
   -2.9426   -0.4709    0.4550 N   0  0  0  0  0  0  0  0  0  0  0  0
   -4.3798   -0.4126    0.5902 C   0  0  0  0  0  0  0  0  0  0  0  0
    2.6928    0.8587    0.5821 S   0  0  0  0  0  0  0  0  0  0  0  0
    1.5338    2.1867    0.1598 C   0  0  0  0  0  0  0  0  0  0  0  0
    1.2904   -1.2698   -2.2043 H   0  0  0  0  0  0  0  0  0  0  0  0
    0.9255    0.4136   -1.8569 H   0  0  0  0  0  0  0  0  0  0  0  0
    2.5845   -0.0642   -2.2491 H   0  0  0  0  0  0  0  0  0  0  0  0
    2.6884   -2.6674   -0.5391 H   0  0  0  0  0  0  0  0  0  0  0  0
    3.3586   -1.8516    0.8848 H   0  0  0  0  0  0  0  0  0  0  0  0
    3.9392   -1.4293   -0.7248 H   0  0  0  0  0  0  0  0  0  0  0  0
    1.1216   -1.4417    1.5553 H   0  0  0  0  0  0  0  0  0  0  0  0
   -2.3921   -0.9133    1.1806 H   0  0  0  0  0  0  0  0  0  0  0  0
   -4.6478    0.1375    1.4911 H   0  0  0  0  0  0  0  0  0  0  0  0
   -4.7899   -1.4200    0.6414 H   0  0  0  0  0  0  0  0  0  0  0  0
   -4.7801    0.1001   -0.2822 H   0  0  0  0  0  0  0  0  0  0  0  0
    1.6753    2.4884   -0.8732 H   0  0  0  0  0  0  0  0  0  0  0  0
    1.7733    3.0086    0.8264 H   0  0  0  0  0  0  0  0  0  0  0  0
    0.5143    1.8577    0.3308 H   0  0  0  0  0  0  0  0  0  0  0  0
  1  2  1  0  0  0  0
  2  3  1  0  0  0  0
  2  4  1  0  0  0  0
  4  5  2  0  0  0  0
  5  6  1  0  0  0  0
  6  7  1  0  0  0  0
  7  8  2  0  0  0  0
  7  9  4  0  0  0  0
  9 10  1  0  0  0  0
  2 11  1  0  0  0  0
 11 12  1  0  0  0  0
  1 13  1  0  0  0  0
  1 14  1  0  0  0  0
  1 15  1  0  0  0  0
  3 16  1  0  0  0  0
  3 17  1  0  0  0  0
  3 18  1  0  0  0  0
  4 19  1  0  0  0  0
  9 20  1  0  0  0  0
 10 21  1  0  0  0  0
 10 22  1  0  0  0  0
 10 23  1  0  0  0  0
 12 24  1  0  0  0  0
 12 25  1  0  0  0  0
 12 26  1  0  0  0  0
M  END
