 xtb: 6.7.1 (edcfbbe)
          04112516593D

 20 19  0     0  0            999 V2000
   -3.6443   -0.6914    0.2668 C   0  0  0  0  0  0  0  0  0  0  0  0
   -2.2381   -0.4357   -0.2615 C   0  0  0  0  0  0  0  0  0  0  0  0
   -1.5899    0.7648    0.4259 C   0  0  0  0  0  0  0  0  0  0  0  0
   -0.1864    1.0359   -0.0946 C   0  0  0  0  0  0  0  0  0  0  0  0
    0.6642   -0.0542    0.2903 O   0  0  0  0  0  0  0  0  0  0  0  0
    1.8573   -0.1449   -0.2815 C   0  0  0  0  0  0  0  0  0  0  0  0
    2.2618    0.6534   -1.1034 O   0  0  0  0  0  0  0  0  0  0  0  0
    2.6164   -1.3445    0.1997 C   0  0  0  0  0  0  0  0  0  0  0  0
   -4.2787    0.1747    0.0940 H   0  0  0  0  0  0  0  0  0  0  0  0
   -4.0881   -1.5483   -0.2330 H   0  0  0  0  0  0  0  0  0  0  0  0
   -3.6194   -0.8909    1.3353 H   0  0  0  0  0  0  0  0  0  0  0  0
   -1.6176   -1.3179   -0.0950 H   0  0  0  0  0  0  0  0  0  0  0  0
   -2.2804   -0.2545   -1.3378 H   0  0  0  0  0  0  0  0  0  0  0  0
   -2.1918    1.6580    0.2568 H   0  0  0  0  0  0  0  0  0  0  0  0
   -1.5338    0.5839    1.5000 H   0  0  0  0  0  0  0  0  0  0  0  0
   -0.1683    1.1241   -1.1863 H   0  0  0  0  0  0  0  0  0  0  0  0
    0.2257    1.9572    0.3300 H   0  0  0  0  0  0  0  0  0  0  0  0
    2.5692   -2.1129   -0.5688 H   0  0  0  0  0  0  0  0  0  0  0  0
    2.1736   -1.7196    1.1158 H   0  0  0  0  0  0  0  0  0  0  0  0
    3.6588   -1.0782    0.3468 H   0  0  0  0  0  0  0  0  0  0  0  0
  1  2  1  0  0  0  0
  2  3  1  0  0  0  0
  3  4  1  0  0  0  0
  4  5  1  0  0  0  0
  5  6  1  0  0  0  0
  6  7  2  0  0  0  0
  6  8  1  0  0  0  0
  1  9  1  0  0  0  0
  1 10  1  0  0  0  0
  1 11  1  0  0  0  0
  2 12  1  0  0  0  0
  2 13  1  0  0  0  0
  3 14  1  0  0  0  0
  3 15  1  0  0  0  0
  4 16  1  0  0  0  0
  4 17  1  0  0  0  0
  8 18  1  0  0  0  0
  8 19  1  0  0  0  0
  8 20  1  0  0  0  0
M  END
