 xtb: 6.7.1 (edcfbbe)
          04112517153D

 20 19  0     0  0            999 V2000
   -3.9284    0.1843   -0.2305 C   0  0  0  0  0  0  0  0  0  0  0  0
   -2.6960   -0.3834    0.4632 C   0  0  0  0  0  0  0  0  0  0  0  0
   -1.4072    0.1602   -0.1481 C   0  0  0  0  0  0  0  0  0  0  0  0
   -0.1698   -0.4031    0.5442 C   0  0  0  0  0  0  0  0  0  0  0  0
    1.1078    0.1197   -0.0561 C   0  0  0  0  0  0  0  0  0  0  0  0
    1.1894    0.8670   -1.0068 O   0  0  0  0  0  0  0  0  0  0  0  0
    2.1733   -0.3460    0.5931 O   0  0  0  0  0  0  0  0  0  0  0  0
    3.4611    0.0668    0.1274 C   0  0  0  0  0  0  0  0  0  0  0  0
   -3.9472    1.2683   -0.1455 H   0  0  0  0  0  0  0  0  0  0  0  0
   -3.9232   -0.0743   -1.2868 H   0  0  0  0  0  0  0  0  0  0  0  0
   -4.8358   -0.2125    0.2172 H   0  0  0  0  0  0  0  0  0  0  0  0
   -2.7277   -0.1282    1.5242 H   0  0  0  0  0  0  0  0  0  0  0  0
   -2.7033   -1.4720    0.3812 H   0  0  0  0  0  0  0  0  0  0  0  0
   -1.3933    1.2495   -0.0741 H   0  0  0  0  0  0  0  0  0  0  0  0
   -1.3665   -0.0895   -1.2102 H   0  0  0  0  0  0  0  0  0  0  0  0
   -0.1477   -1.4924    0.4712 H   0  0  0  0  0  0  0  0  0  0  0  0
   -0.1674   -0.1507    1.6062 H   0  0  0  0  0  0  0  0  0  0  0  0
    3.6005   -0.2445   -0.9085 H   0  0  0  0  0  0  0  0  0  0  0  0
    4.1777   -0.4192    0.7816 H   0  0  0  0  0  0  0  0  0  0  0  0
    3.5485    1.1523    0.1862 H   0  0  0  0  0  0  0  0  0  0  0  0
  1  2  1  0  0  0  0
  2  3  1  0  0  0  0
  3  4  1  0  0  0  0
  4  5  1  0  0  0  0
  5  6  2  0  0  0  0
  5  7  1  0  0  0  0
  7  8  1  0  0  0  0
  1  9  1  0  0  0  0
  1 10  1  0  0  0  0
  1 11  1  0  0  0  0
  2 12  1  0  0  0  0
  2 13  1  0  0  0  0
  3 14  1  0  0  0  0
  3 15  1  0  0  0  0
  4 16  1  0  0  0  0
  4 17  1  0  0  0  0
  8 18  1  0  0  0  0
  8 19  1  0  0  0  0
  8 20  1  0  0  0  0
M  END
