 xtb: 6.7.1 (edcfbbe)
          04112516113D

 20 19  0     0  0            999 V2000
    2.2337   -1.5416    0.5370 C   0  0  0  0  0  0  0  0  0  0  0  0
    1.8315   -0.2993   -0.1900 C   0  0  0  0  0  0  0  0  0  0  0  0
    2.0800   -0.0469   -1.3489 O   0  0  0  0  0  0  0  0  0  0  0  0
    1.1428    0.5292    0.6002 O   0  0  0  0  0  0  0  0  0  0  0  0
    0.5910    1.7101    0.0112 C   0  0  0  0  0  0  0  0  0  0  0  0
   -0.6657    1.3864   -0.7969 C   0  0  0  0  0  0  0  0  0  0  0  0
   -1.6836    0.8531    0.0510 O   0  0  0  0  0  0  0  0  0  0  0  0
   -1.7355   -0.4661    0.2399 C   0  0  0  0  0  0  0  0  0  0  0  0
   -1.0068   -1.2539   -0.3261 O   0  0  0  0  0  0  0  0  0  0  0  0
   -2.7956   -0.8300    1.2309 C   0  0  0  0  0  0  0  0  0  0  0  0
    2.3972   -1.3247    1.5872 H   0  0  0  0  0  0  0  0  0  0  0  0
    3.1151   -1.9727    0.0743 H   0  0  0  0  0  0  0  0  0  0  0  0
    1.4059   -2.2446    0.4471 H   0  0  0  0  0  0  0  0  0  0  0  0
    0.3521    2.3577    0.8546 H   0  0  0  0  0  0  0  0  0  0  0  0
    1.3312    2.1704   -0.6490 H   0  0  0  0  0  0  0  0  0  0  0  0
   -0.4272    0.6613   -1.5818 H   0  0  0  0  0  0  0  0  0  0  0  0
   -1.0787    2.2983   -1.2262 H   0  0  0  0  0  0  0  0  0  0  0  0
   -2.3349   -0.8794    2.2157 H   0  0  0  0  0  0  0  0  0  0  0  0
   -3.2024   -1.8071    0.9906 H   0  0  0  0  0  0  0  0  0  0  0  0
   -3.5688   -0.0694    1.2415 H   0  0  0  0  0  0  0  0  0  0  0  0
  1  2  1  0  0  0  0
  2  3  2  0  0  0  0
  2  4  1  0  0  0  0
  4  5  1  0  0  0  0
  5  6  1  0  0  0  0
  6  7  1  0  0  0  0
  7  8  1  0  0  0  0
  8  9  2  0  0  0  0
  8 10  1  0  0  0  0
  1 11  1  0  0  0  0
  1 12  1  0  0  0  0
  1 13  1  0  0  0  0
  5 14  1  0  0  0  0
  5 15  1  0  0  0  0
  6 16  1  0  0  0  0
  6 17  1  0  0  0  0
 10 18  1  0  0  0  0
 10 19  1  0  0  0  0
 10 20  1  0  0  0  0
M  END
