 xtb: 6.7.1 (edcfbbe)
          04112516273D

 20 19  0     0  0            999 V2000
    2.2290   -1.5422    0.5446 C   0  0  0  0  0  0  0  0  0  0  0  0
    1.8302   -0.2997   -0.1839 C   0  0  0  0  0  0  0  0  0  0  0  0
    2.0815   -0.0485   -1.3425 O   0  0  0  0  0  0  0  0  0  0  0  0
    1.1413    0.5304    0.6044 O   0  0  0  0  0  0  0  0  0  0  0  0
    0.5921    1.7115    0.0134 C   0  0  0  0  0  0  0  0  0  0  0  0
   -0.6627    1.3884   -0.7979 C   0  0  0  0  0  0  0  0  0  0  0  0
   -1.6821    0.8532    0.0470 O   0  0  0  0  0  0  0  0  0  0  0  0
   -1.7334   -0.4663    0.2337 C   0  0  0  0  0  0  0  0  0  0  0  0
   -1.0032   -1.2529   -0.3321 O   0  0  0  0  0  0  0  0  0  0  0  0
   -2.7952   -0.8325    1.2221 C   0  0  0  0  0  0  0  0  0  0  0  0
    2.3917   -1.3248    1.5948 H   0  0  0  0  0  0  0  0  0  0  0  0
    3.1100   -1.9755    0.0832 H   0  0  0  0  0  0  0  0  0  0  0  0
    1.3999   -2.2435    0.4543 H   0  0  0  0  0  0  0  0  0  0  0  0
    0.3516    2.3595    0.8560 H   0  0  0  0  0  0  0  0  0  0  0  0
    1.3345    2.1710   -0.6449 H   0  0  0  0  0  0  0  0  0  0  0  0
   -0.4221    0.6645   -1.5833 H   0  0  0  0  0  0  0  0  0  0  0  0
   -1.0752    2.3008   -1.2267 H   0  0  0  0  0  0  0  0  0  0  0  0
   -2.3410   -0.8612    2.2107 H   0  0  0  0  0  0  0  0  0  0  0  0
   -3.1863   -1.8184    0.9918 H   0  0  0  0  0  0  0  0  0  0  0  0
   -3.5792   -0.0831    1.2175 H   0  0  0  0  0  0  0  0  0  0  0  0
  1  2  1  0  0  0  0
  2  3  2  0  0  0  0
  2  4  1  0  0  0  0
  4  5  1  0  0  0  0
  5  6  1  0  0  0  0
  6  7  1  0  0  0  0
  7  8  1  0  0  0  0
  8  9  2  0  0  0  0
  8 10  1  0  0  0  0
  1 11  1  0  0  0  0
  1 12  1  0  0  0  0
  1 13  1  0  0  0  0
  5 14  1  0  0  0  0
  5 15  1  0  0  0  0
  6 16  1  0  0  0  0
  6 17  1  0  0  0  0
 10 18  1  0  0  0  0
 10 19  1  0  0  0  0
 10 20  1  0  0  0  0
M  END
