 xtb: 6.7.1 (edcfbbe)
          04112516013D

 20 19  0     0  0            999 V2000
   -3.2370   -0.7862   -0.4990 C   0  0  0  0  0  0  0  0  0  0  0  0
   -1.8065   -0.2617   -0.5090 C   0  0  0  0  0  0  0  0  0  0  0  0
   -1.5380    0.6582    0.6808 C   0  0  0  0  0  0  0  0  0  0  0  0
   -0.1297    1.2447    0.6583 C   0  0  0  0  0  0  0  0  0  0  0  0
    0.8490    0.2150    0.8590 O   0  0  0  0  0  0  0  0  0  0  0  0
    1.6342   -0.1445   -0.1490 C   0  0  0  0  0  0  0  0  0  0  0  0
    1.6014    0.3694   -1.2488 O   0  0  0  0  0  0  0  0  0  0  0  0
    2.5651   -1.2508    0.2495 C   0  0  0  0  0  0  0  0  0  0  0  0
   -3.4076   -1.4399   -1.3503 H   0  0  0  0  0  0  0  0  0  0  0  0
   -3.4296   -1.3482    0.4115 H   0  0  0  0  0  0  0  0  0  0  0  0
   -3.9434    0.0386   -0.5507 H   0  0  0  0  0  0  0  0  0  0  0  0
   -1.1107   -1.1040   -0.4810 H   0  0  0  0  0  0  0  0  0  0  0  0
   -1.6203    0.2844   -1.4371 H   0  0  0  0  0  0  0  0  0  0  0  0
   -2.2451    1.4881    0.6687 H   0  0  0  0  0  0  0  0  0  0  0  0
   -1.6724    0.1026    1.6103 H   0  0  0  0  0  0  0  0  0  0  0  0
    0.0742    1.7385   -0.2969 H   0  0  0  0  0  0  0  0  0  0  0  0
    0.0090    1.9495    1.4807 H   0  0  0  0  0  0  0  0  0  0  0  0
    2.3934   -2.1067   -0.3983 H   0  0  0  0  0  0  0  0  0  0  0  0
    2.3985   -1.5196    1.2868 H   0  0  0  0  0  0  0  0  0  0  0  0
    3.5901   -0.9216    0.1001 H   0  0  0  0  0  0  0  0  0  0  0  0
  1  2  1  0  0  0  0
  2  3  1  0  0  0  0
  3  4  1  0  0  0  0
  4  5  1  0  0  0  0
  5  6  1  0  0  0  0
  6  7  2  0  0  0  0
  6  8  1  0  0  0  0
  1  9  1  0  0  0  0
  1 10  1  0  0  0  0
  1 11  1  0  0  0  0
  2 12  1  0  0  0  0
  2 13  1  0  0  0  0
  3 14  1  0  0  0  0
  3 15  1  0  0  0  0
  4 16  1  0  0  0  0
  4 17  1  0  0  0  0
  8 18  1  0  0  0  0
  8 19  1  0  0  0  0
  8 20  1  0  0  0  0
M  END
