 xtb: 6.7.1 (edcfbbe)
          04112516093D

 19 18  0     0  0            999 V2000
    1.8040   -0.5179   -1.0222 C   0  0  0  0  0  0  0  0  0  0  0  0
    2.0355    0.2834    0.2530 C   0  0  0  0  0  0  0  0  0  0  0  0
    0.8513    1.1667    0.6469 C   0  0  0  0  0  0  0  0  0  0  0  0
   -0.3649    0.3683    1.1325 C   0  0  0  0  0  0  0  0  0  0  0  0
   -1.1825   -0.3052    0.0602 C   0  0  0  0  0  0  0  0  0  0  0  0
   -1.4909   -1.4815    0.1378 O   0  0  0  0  0  0  0  0  0  0  0  0
   -1.6463    0.5631   -1.0730 C   0  0  0  0  0  0  0  0  0  0  0  0
    1.6212    0.1454   -1.8649 H   0  0  0  0  0  0  0  0  0  0  0  0
    2.6793   -1.1216   -1.2502 H   0  0  0  0  0  0  0  0  0  0  0  0
    0.9542   -1.1879   -0.9132 H   0  0  0  0  0  0  0  0  0  0  0  0
    2.9102    0.9222    0.1122 H   0  0  0  0  0  0  0  0  0  0  0  0
    2.2576   -0.4037    1.0724 H   0  0  0  0  0  0  0  0  0  0  0  0
    0.5738    1.8047   -0.1914 H   0  0  0  0  0  0  0  0  0  0  0  0
    1.1700    1.8138    1.4661 H   0  0  0  0  0  0  0  0  0  0  0  0
   -0.0488   -0.3898    1.8524 H   0  0  0  0  0  0  0  0  0  0  0  0
   -1.0495    1.0518    1.6417 H   0  0  0  0  0  0  0  0  0  0  0  0
   -0.8373    0.6628   -1.7932 H   0  0  0  0  0  0  0  0  0  0  0  0
   -2.4904    0.0951   -1.5724 H   0  0  0  0  0  0  0  0  0  0  0  0
   -1.9142    1.5526   -0.7168 H   0  0  0  0  0  0  0  0  0  0  0  0
  1  2  1  0  0  0  0
  2  3  1  0  0  0  0
  3  4  1  0  0  0  0
  4  5  1  0  0  0  0
  5  6  2  0  0  0  0
  5  7  1  0  0  0  0
  1  8  1  0  0  0  0
  1  9  1  0  0  0  0
  1 10  1  0  0  0  0
  2 11  1  0  0  0  0
  2 12  1  0  0  0  0
  3 13  1  0  0  0  0
  3 14  1  0  0  0  0
  4 15  1  0  0  0  0
  4 16  1  0  0  0  0
  7 17  1  0  0  0  0
  7 18  1  0  0  0  0
  7 19  1  0  0  0  0
M  END
