 xtb: 6.7.1 (edcfbbe)
          04112516153D

 26 25  0     0  0            999 V2000
    1.0662    1.1489   -1.4282 C   0  0  0  0  0  0  0  0  0  0  0  0
    1.1724    0.2695   -0.1832 C   0  0  0  0  0  0  0  0  0  0  0  0
    0.7281   -1.1599   -0.4561 C   0  0  0  0  0  0  0  0  0  0  0  0
    0.4669    0.9866    0.9287 C   0  0  0  0  0  0  0  0  0  0  0  0
   -0.5991    0.8072    1.5734 N   0  0  0  0  0  0  0  0  0  0  0  0
   -1.4441   -0.2915    1.2747 O   0  0  0  0  0  0  0  0  0  0  0  0
   -2.2250   -0.1835    0.1610 C   0  0  0  0  0  0  0  0  0  0  0  0
   -2.0882    0.6878   -0.6787 O   0  0  0  0  0  0  0  0  0  0  0  0
   -3.1172   -1.1726    0.1441 N   0  0  0  0  0  0  0  0  0  0  0  0
   -4.0880   -1.3403   -0.9148 C   0  0  0  0  0  0  0  0  0  0  0  0
    2.9353    0.2266    0.4456 S   0  0  0  0  0  0  0  0  0  0  0  0
    3.9034   -0.0278   -1.0729 C   0  0  0  0  0  0  0  0  0  0  0  0
    1.5408    2.1131   -1.2624 H   0  0  0  0  0  0  0  0  0  0  0  0
    1.5248    0.6572   -2.2815 H   0  0  0  0  0  0  0  0  0  0  0  0
    0.0110    1.3130   -1.6470 H   0  0  0  0  0  0  0  0  0  0  0  0
    0.6448   -1.7201    0.4731 H   0  0  0  0  0  0  0  0  0  0  0  0
    1.4565   -1.6557   -1.0943 H   0  0  0  0  0  0  0  0  0  0  0  0
   -0.2296   -1.1701   -0.9724 H   0  0  0  0  0  0  0  0  0  0  0  0
    0.9879    1.8721    1.2787 H   0  0  0  0  0  0  0  0  0  0  0  0
   -3.1279   -1.8133    0.9233 H   0  0  0  0  0  0  0  0  0  0  0  0
   -3.9323   -0.5458   -1.6416 H   0  0  0  0  0  0  0  0  0  0  0  0
   -5.0977   -1.2705   -0.5130 H   0  0  0  0  0  0  0  0  0  0  0  0
   -3.9522   -2.3077   -1.3966 H   0  0  0  0  0  0  0  0  0  0  0  0
    4.9171   -0.2068   -0.7310 H   0  0  0  0  0  0  0  0  0  0  0  0
    3.8697    0.8639   -1.6890 H   0  0  0  0  0  0  0  0  0  0  0  0
    3.5361   -0.8969   -1.6085 H   0  0  0  0  0  0  0  0  0  0  0  0
  1  2  1  0  0  0  0
  2  3  1  0  0  0  0
  2  4  1  0  0  0  0
  4  5  2  0  0  0  0
  5  6  1  0  0  0  0
  6  7  1  0  0  0  0
  7  8  2  0  0  0  0
  7  9  4  0  0  0  0
  9 10  1  0  0  0  0
  2 11  1  0  0  0  0
 11 12  1  0  0  0  0
  1 13  1  0  0  0  0
  1 14  1  0  0  0  0
  1 15  1  0  0  0  0
  3 16  1  0  0  0  0
  3 17  1  0  0  0  0
  3 18  1  0  0  0  0
  4 19  1  0  0  0  0
  9 20  1  0  0  0  0
 10 21  1  0  0  0  0
 10 22  1  0  0  0  0
 10 23  1  0  0  0  0
 12 24  1  0  0  0  0
 12 25  1  0  0  0  0
 12 26  1  0  0  0  0
M  END
