 xtb: 6.7.1 (edcfbbe)
          04112514053D

 17 16  0     0  0            999 V2000
    2.5886   -1.3128    0.2304 C   0  0  0  0  0  0  0  0  0  0  0  0
    2.3182    0.0064   -0.4826 C   0  0  0  0  0  0  0  0  0  0  0  0
    1.3102    0.9018    0.2596 C   0  0  0  0  0  0  0  0  0  0  0  0
   -0.0537    0.3237    0.2601 C   0  0  0  0  0  0  0  0  0  0  0  0
   -1.1331    0.8945   -0.2920 C   0  0  0  0  0  0  0  0  0  0  0  0
   -2.4320    0.2532   -0.2612 C   0  0  0  0  0  0  0  0  0  0  0  0
   -2.6829   -0.8239    0.2496 O   0  0  0  0  0  0  0  0  0  0  0  0
    2.9260   -1.1355    1.2490 H   0  0  0  0  0  0  0  0  0  0  0  0
    1.6968   -1.9329    0.2644 H   0  0  0  0  0  0  0  0  0  0  0  0
    3.3627   -1.8674   -0.2943 H   0  0  0  0  0  0  0  0  0  0  0  0
    1.9457   -0.1898   -1.4896 H   0  0  0  0  0  0  0  0  0  0  0  0
    3.2542    0.5598   -0.5740 H   0  0  0  0  0  0  0  0  0  0  0  0
    1.2940    1.8884   -0.2050 H   0  0  0  0  0  0  0  0  0  0  0  0
    1.6444    1.0067    1.2948 H   0  0  0  0  0  0  0  0  0  0  0  0
   -0.1833   -0.6405    0.7352 H   0  0  0  0  0  0  0  0  0  0  0  0
   -1.0758    1.8551   -0.7812 H   0  0  0  0  0  0  0  0  0  0  0  0
   -3.2404    0.8213   -0.7567 H   0  0  0  0  0  0  0  0  0  0  0  0
  1  2  1  0  0  0  0
  2  3  1  0  0  0  0
  3  4  1  0  0  0  0
  4  5  2  0  0  0  0
  5  6  1  0  0  0  0
  6  7  2  0  0  0  0
  1  8  1  0  0  0  0
  1  9  1  0  0  0  0
  1 10  1  0  0  0  0
  2 11  1  0  0  0  0
  2 12  1  0  0  0  0
  3 13  1  0  0  0  0
  3 14  1  0  0  0  0
  4 15  1  0  0  0  0
  5 16  1  0  0  0  0
  6 17  1  0  0  0  0
M  END
