 xtb: 6.7.1 (edcfbbe)
          04112516013D

 20 19  0     0  0            999 V2000
   -2.8743   -0.4678    1.0221 C   0  0  0  0  0  0  0  0  0  0  0  0
   -2.3174   -0.5353   -0.3957 C   0  0  0  0  0  0  0  0  0  0  0  0
   -1.6351    0.7620   -0.8341 C   0  0  0  0  0  0  0  0  0  0  0  0
   -0.3090    1.0100   -0.1290 C   0  0  0  0  0  0  0  0  0  0  0  0
    0.6289    0.0101   -0.5550 O   0  0  0  0  0  0  0  0  0  0  0  0
    1.7534   -0.1222    0.1357 C   0  0  0  0  0  0  0  0  0  0  0  0
    2.0173    0.5523    1.1111 O   0  0  0  0  0  0  0  0  0  0  0  0
    2.6370   -1.1870   -0.4413 C   0  0  0  0  0  0  0  0  0  0  0  0
   -3.3964   -1.3899    1.2644 H   0  0  0  0  0  0  0  0  0  0  0  0
   -2.0805   -0.3296    1.7522 H   0  0  0  0  0  0  0  0  0  0  0  0
   -3.5746    0.3589    1.1161 H   0  0  0  0  0  0  0  0  0  0  0  0
   -1.6015   -1.3554   -0.4724 H   0  0  0  0  0  0  0  0  0  0  0  0
   -3.1366   -0.7429   -1.0861 H   0  0  0  0  0  0  0  0  0  0  0  0
   -1.4413    0.7214   -1.9066 H   0  0  0  0  0  0  0  0  0  0  0  0
   -2.2893    1.6102   -0.6319 H   0  0  0  0  0  0  0  0  0  0  0  0
    0.0972    1.9927   -0.3906 H   0  0  0  0  0  0  0  0  0  0  0  0
   -0.4020    0.9616    0.9600 H   0  0  0  0  0  0  0  0  0  0  0  0
    2.0645   -2.0990   -0.5816 H   0  0  0  0  0  0  0  0  0  0  0  0
    3.4795   -1.3593    0.2199 H   0  0  0  0  0  0  0  0  0  0  0  0
    2.9920   -0.8575   -1.4146 H   0  0  0  0  0  0  0  0  0  0  0  0
  1  2  1  0  0  0  0
  2  3  1  0  0  0  0
  3  4  1  0  0  0  0
  4  5  1  0  0  0  0
  5  6  1  0  0  0  0
  6  7  2  0  0  0  0
  6  8  1  0  0  0  0
  1  9  1  0  0  0  0
  1 10  1  0  0  0  0
  1 11  1  0  0  0  0
  2 12  1  0  0  0  0
  2 13  1  0  0  0  0
  3 14  1  0  0  0  0
  3 15  1  0  0  0  0
  4 16  1  0  0  0  0
  4 17  1  0  0  0  0
  8 18  1  0  0  0  0
  8 19  1  0  0  0  0
  8 20  1  0  0  0  0
M  END
