 xtb: 6.7.1 (edcfbbe)
          04112514153D

 17 16  0     0  0            999 V2000
    3.4872   -0.3797   -0.0022 C   0  0  0  0  0  0  0  0  0  0  0  0
    1.9812   -0.5979    0.0944 C   0  0  0  0  0  0  0  0  0  0  0  0
    1.2199    0.6900   -0.2075 C   0  0  0  0  0  0  0  0  0  0  0  0
   -0.2564    0.5983   -0.1434 C   0  0  0  0  0  0  0  0  0  0  0  0
   -0.9944   -0.4829    0.1488 C   0  0  0  0  0  0  0  0  0  0  0  0
   -2.4404   -0.4171    0.1727 C   0  0  0  0  0  0  0  0  0  0  0  0
   -3.1153    0.5716   -0.0565 O   0  0  0  0  0  0  0  0  0  0  0  0
    4.0195   -1.3022    0.2141 H   0  0  0  0  0  0  0  0  0  0  0  0
    3.7636   -0.0519   -1.0017 H   0  0  0  0  0  0  0  0  0  0  0  0
    3.8111    0.3767    0.7089 H   0  0  0  0  0  0  0  0  0  0  0  0
    1.7303   -0.9421    1.0991 H   0  0  0  0  0  0  0  0  0  0  0  0
    1.6826   -1.3720   -0.6146 H   0  0  0  0  0  0  0  0  0  0  0  0
    1.4873    1.0499   -1.2063 H   0  0  0  0  0  0  0  0  0  0  0  0
    1.5345    1.4749    0.4878 H   0  0  0  0  0  0  0  0  0  0  0  0
   -0.7939    1.5154   -0.3587 H   0  0  0  0  0  0  0  0  0  0  0  0
   -0.5522   -1.4389    0.3765 H   0  0  0  0  0  0  0  0  0  0  0  0
   -2.9421   -1.3692    0.4256 H   0  0  0  0  0  0  0  0  0  0  0  0
  1  2  1  0  0  0  0
  2  3  1  0  0  0  0
  3  4  1  0  0  0  0
  4  5  2  0  0  0  0
  5  6  1  0  0  0  0
  6  7  2  0  0  0  0
  1  8  1  0  0  0  0
  1  9  1  0  0  0  0
  1 10  1  0  0  0  0
  2 11  1  0  0  0  0
  2 12  1  0  0  0  0
  3 13  1  0  0  0  0
  3 14  1  0  0  0  0
  4 15  1  0  0  0  0
  5 16  1  0  0  0  0
  6 17  1  0  0  0  0
M  END
