 xtb: 6.7.1 (edcfbbe)
          04112516213D

 19 18  0     0  0            999 V2000
   -3.5236   -0.2285   -0.3247 C   0  0  0  0  0  0  0  0  0  0  0  0
   -2.2690    0.0082    0.5082 C   0  0  0  0  0  0  0  0  0  0  0  0
   -1.0437    0.2492   -0.3708 C   0  0  0  0  0  0  0  0  0  0  0  0
    0.2363    0.3819    0.4512 C   0  0  0  0  0  0  0  0  0  0  0  0
    1.4673    0.6409   -0.4406 C   0  0  0  0  0  0  0  0  0  0  0  0
    2.5947   -0.1806   -0.0512 C   0  0  0  0  0  0  0  0  0  0  0  0
    3.4964   -0.9000    0.2691 C   0  0  0  0  0  0  0  0  0  0  0  0
   -3.7258    0.6289   -0.9628 H   0  0  0  0  0  0  0  0  0  0  0  0
   -4.3853   -0.3900    0.3181 H   0  0  0  0  0  0  0  0  0  0  0  0
   -3.3990   -1.1042   -0.9580 H   0  0  0  0  0  0  0  0  0  0  0  0
   -2.4219    0.8701    1.1615 H   0  0  0  0  0  0  0  0  0  0  0  0
   -2.0886   -0.8610    1.1451 H   0  0  0  0  0  0  0  0  0  0  0  0
   -1.1966    1.1553   -0.9622 H   0  0  0  0  0  0  0  0  0  0  0  0
   -0.9351   -0.5885   -1.0645 H   0  0  0  0  0  0  0  0  0  0  0  0
    0.3878   -0.5390    1.0190 H   0  0  0  0  0  0  0  0  0  0  0  0
    0.1249    1.1934    1.1727 H   0  0  0  0  0  0  0  0  0  0  0  0
    1.7616    1.6916   -0.3959 H   0  0  0  0  0  0  0  0  0  0  0  0
    1.2254    0.4063   -1.4807 H   0  0  0  0  0  0  0  0  0  0  0  0
    4.2960   -1.5191    0.5463 H   0  0  0  0  0  0  0  0  0  0  0  0
  1  2  1  0  0  0  0
  2  3  1  0  0  0  0
  3  4  1  0  0  0  0
  4  5  1  0  0  0  0
  5  6  1  0  0  0  0
  6  7  3  0  0  0  0
  1  8  1  0  0  0  0
  1  9  1  0  0  0  0
  1 10  1  0  0  0  0
  2 11  1  0  0  0  0
  2 12  1  0  0  0  0
  3 13  1  0  0  0  0
  3 14  1  0  0  0  0
  4 15  1  0  0  0  0
  4 16  1  0  0  0  0
  5 17  1  0  0  0  0
  5 18  1  0  0  0  0
  7 19  1  0  0  0  0
M  END
