 xtb: 6.7.1 (edcfbbe)
          04112516293D

 20 19  0     0  0            999 V2000
   -3.5312   -0.4129    0.0214 C   0  0  0  0  0  0  0  0  0  0  0  0
   -2.5709    0.7505   -0.2007 C   0  0  0  0  0  0  0  0  0  0  0  0
   -1.1960    0.5274    0.4286 C   0  0  0  0  0  0  0  0  0  0  0  0
   -0.4228   -0.6072   -0.2389 C   0  0  0  0  0  0  0  0  0  0  0  0
    0.8709   -0.7689    0.3591 O   0  0  0  0  0  0  0  0  0  0  0  0
    1.8703   -0.0068   -0.0744 C   0  0  0  0  0  0  0  0  0  0  0  0
    1.7568    0.7996   -0.9745 O   0  0  0  0  0  0  0  0  0  0  0  0
    3.1333   -0.2747    0.6871 C   0  0  0  0  0  0  0  0  0  0  0  0
   -3.1948   -1.3041   -0.5007 H   0  0  0  0  0  0  0  0  0  0  0  0
   -3.6129   -0.6406    1.0813 H   0  0  0  0  0  0  0  0  0  0  0  0
   -4.5193   -0.1555   -0.3512 H   0  0  0  0  0  0  0  0  0  0  0  0
   -2.4503    0.9279   -1.2711 H   0  0  0  0  0  0  0  0  0  0  0  0
   -2.9998    1.6530    0.2382 H   0  0  0  0  0  0  0  0  0  0  0  0
   -0.6048    1.4416    0.3309 H   0  0  0  0  0  0  0  0  0  0  0  0
   -1.3038    0.3036    1.4916 H   0  0  0  0  0  0  0  0  0  0  0  0
   -0.9137   -1.5688   -0.0917 H   0  0  0  0  0  0  0  0  0  0  0  0
   -0.2960   -0.4024   -1.3069 H   0  0  0  0  0  0  0  0  0  0  0  0
    3.2422   -1.3417    0.8531 H   0  0  0  0  0  0  0  0  0  0  0  0
    3.0629    0.2167    1.6549 H   0  0  0  0  0  0  0  0  0  0  0  0
    3.9810    0.1259    0.1414 H   0  0  0  0  0  0  0  0  0  0  0  0
  1  2  1  0  0  0  0
  2  3  1  0  0  0  0
  3  4  1  0  0  0  0
  4  5  1  0  0  0  0
  5  6  1  0  0  0  0
  6  7  2  0  0  0  0
  6  8  1  0  0  0  0
  1  9  1  0  0  0  0
  1 10  1  0  0  0  0
  1 11  1  0  0  0  0
  2 12  1  0  0  0  0
  2 13  1  0  0  0  0
  3 14  1  0  0  0  0
  3 15  1  0  0  0  0
  4 16  1  0  0  0  0
  4 17  1  0  0  0  0
  8 18  1  0  0  0  0
  8 19  1  0  0  0  0
  8 20  1  0  0  0  0
M  END
