 xtb: 6.7.1 (edcfbbe)
          04112514203D

 23 22  0     0  0            999 V2000
    2.9074   -0.0476   -0.6458 C   0  0  0  0  0  0  0  0  0  0  0  0
    1.8675   -0.9138    0.0565 C   0  0  0  0  0  0  0  0  0  0  0  0
    0.9455   -0.0969    0.9649 C   0  0  0  0  0  0  0  0  0  0  0  0
   -0.0802    0.7550    0.2004 C   0  0  0  0  0  0  0  0  0  0  0  0
   -1.5182    0.2297    0.2926 C   0  0  0  0  0  0  0  0  0  0  0  0
   -2.4811    1.2363   -0.3360 C   0  0  0  0  0  0  0  0  0  0  0  0
   -1.6706   -1.1286   -0.3876 C   0  0  0  0  0  0  0  0  0  0  0  0
    3.5379    0.4542    0.0851 H   0  0  0  0  0  0  0  0  0  0  0  0
    3.5414   -0.6574   -1.2853 H   0  0  0  0  0  0  0  0  0  0  0  0
    2.4313    0.7116   -1.2614 H   0  0  0  0  0  0  0  0  0  0  0  0
    2.3857   -1.6625    0.6608 H   0  0  0  0  0  0  0  0  0  0  0  0
    1.2728   -1.4444   -0.6888 H   0  0  0  0  0  0  0  0  0  0  0  0
    0.4172   -0.7746    1.6386 H   0  0  0  0  0  0  0  0  0  0  0  0
    1.5684    0.5485    1.5877 H   0  0  0  0  0  0  0  0  0  0  0  0
   -0.0687    1.7737    0.5932 H   0  0  0  0  0  0  0  0  0  0  0  0
    0.1992    0.8128   -0.8530 H   0  0  0  0  0  0  0  0  0  0  0  0
   -1.7776    0.1202    1.3524 H   0  0  0  0  0  0  0  0  0  0  0  0
   -2.4086    2.2012    0.1608 H   0  0  0  0  0  0  0  0  0  0  0  0
   -2.2478    1.3745   -1.3897 H   0  0  0  0  0  0  0  0  0  0  0  0
   -3.5072    0.8854   -0.2553 H   0  0  0  0  0  0  0  0  0  0  0  0
   -1.0291   -1.8727    0.0765 H   0  0  0  0  0  0  0  0  0  0  0  0
   -1.4098   -1.0537   -1.4413 H   0  0  0  0  0  0  0  0  0  0  0  0
   -2.6996   -1.4738   -0.3138 H   0  0  0  0  0  0  0  0  0  0  0  0
  1  2  1  0  0  0  0
  2  3  1  0  0  0  0
  3  4  1  0  0  0  0
  4  5  1  0  0  0  0
  5  6  1  0  0  0  0
  5  7  1  0  0  0  0
  1  8  1  0  0  0  0
  1  9  1  0  0  0  0
  1 10  1  0  0  0  0
  2 11  1  0  0  0  0
  2 12  1  0  0  0  0
  3 13  1  0  0  0  0
  3 14  1  0  0  0  0
  4 15  1  0  0  0  0
  4 16  1  0  0  0  0
  5 17  1  0  0  0  0
  6 18  1  0  0  0  0
  6 19  1  0  0  0  0
  6 20  1  0  0  0  0
  7 21  1  0  0  0  0
  7 22  1  0  0  0  0
  7 23  1  0  0  0  0
M  END
