 xtb: 6.7.1 (edcfbbe)
          04112514233D

 23 22  0     0  0            999 V2000
    2.7798    0.5349    1.3413 C   0  0  0  0  0  0  0  0  0  0  0  0
    2.4514    0.3291   -0.1359 C   0  0  0  0  0  0  0  0  0  0  0  0
    3.6072   -0.3864   -0.8339 C   0  0  0  0  0  0  0  0  0  0  0  0
    1.1621   -0.4785   -0.3223 C   0  0  0  0  0  0  0  0  0  0  0  0
   -0.0784    0.2571    0.1635 C   0  0  0  0  0  0  0  0  0  0  0  0
   -1.2274   -0.5129   -0.2198 O   0  0  0  0  0  0  0  0  0  0  0  0
   -2.4257    0.0216   -0.0220 C   0  0  0  0  0  0  0  0  0  0  0  0
   -2.5869    1.1208    0.4701 O   0  0  0  0  0  0  0  0  0  0  0  0
   -3.5252   -0.8864   -0.4831 C   0  0  0  0  0  0  0  0  0  0  0  0
    2.8638   -0.4241    1.8471 H   0  0  0  0  0  0  0  0  0  0  0  0
    2.0121    1.1233    1.8362 H   0  0  0  0  0  0  0  0  0  0  0  0
    3.7261    1.0602    1.4441 H   0  0  0  0  0  0  0  0  0  0  0  0
    2.3154    1.3104   -0.6035 H   0  0  0  0  0  0  0  0  0  0  0  0
    3.3993   -0.5126   -1.8933 H   0  0  0  0  0  0  0  0  0  0  0  0
    3.7632   -1.3683   -0.3937 H   0  0  0  0  0  0  0  0  0  0  0  0
    4.5252    0.1862   -0.7304 H   0  0  0  0  0  0  0  0  0  0  0  0
    1.2404   -1.4284    0.2082 H   0  0  0  0  0  0  0  0  0  0  0  0
    1.0235   -0.6978   -1.3825 H   0  0  0  0  0  0  0  0  0  0  0  0
   -0.0926    0.3734    1.2512 H   0  0  0  0  0  0  0  0  0  0  0  0
   -0.1584    1.2527   -0.2871 H   0  0  0  0  0  0  0  0  0  0  0  0
   -4.0315   -0.4222   -1.3259 H   0  0  0  0  0  0  0  0  0  0  0  0
   -4.2505   -1.0046    0.3172 H   0  0  0  0  0  0  0  0  0  0  0  0
   -3.1131   -1.8454   -0.7766 H   0  0  0  0  0  0  0  0  0  0  0  0
  1  2  1  0  0  0  0
  2  3  1  0  0  0  0
  2  4  1  0  0  0  0
  4  5  1  0  0  0  0
  5  6  1  0  0  0  0
  6  7  1  0  0  0  0
  7  8  2  0  0  0  0
  7  9  1  0  0  0  0
  1 10  1  0  0  0  0
  1 11  1  0  0  0  0
  1 12  1  0  0  0  0
  2 13  1  0  0  0  0
  3 14  1  0  0  0  0
  3 15  1  0  0  0  0
  3 16  1  0  0  0  0
  4 17  1  0  0  0  0
  4 18  1  0  0  0  0
  5 19  1  0  0  0  0
  5 20  1  0  0  0  0
  9 21  1  0  0  0  0
  9 22  1  0  0  0  0
  9 23  1  0  0  0  0
M  END
