 xtb: 6.7.1 (edcfbbe)
          04112514343D

 18 17  0     0  0            999 V2000
    2.3468    0.3750   -0.5242 C   0  0  0  0  0  0  0  0  0  0  0  0
    1.2637    0.5319    0.5378 C   0  0  0  0  0  0  0  0  0  0  0  0
    0.4202   -0.7320    0.7206 C   0  0  0  0  0  0  0  0  0  0  0  0
   -0.5372   -1.0012   -0.4397 C   0  0  0  0  0  0  0  0  0  0  0  0
   -1.6778   -0.0396   -0.5882 C   0  0  0  0  0  0  0  0  0  0  0  0
   -2.1017    0.8464    0.2940 C   0  0  0  0  0  0  0  0  0  0  0  0
    2.9550    1.2750   -0.5770 H   0  0  0  0  0  0  0  0  0  0  0  0
    1.9116    0.2055   -1.5056 H   0  0  0  0  0  0  0  0  0  0  0  0
    2.9963   -0.4646   -0.2853 H   0  0  0  0  0  0  0  0  0  0  0  0
    1.7411    0.7731    1.4905 H   0  0  0  0  0  0  0  0  0  0  0  0
    0.6143    1.3668    0.2698 H   0  0  0  0  0  0  0  0  0  0  0  0
    1.0908   -1.5884    0.8235 H   0  0  0  0  0  0  0  0  0  0  0  0
   -0.1531   -0.6561    1.6460 H   0  0  0  0  0  0  0  0  0  0  0  0
    0.0216   -1.0181   -1.3784 H   0  0  0  0  0  0  0  0  0  0  0  0
   -0.9673   -2.0012   -0.3172 H   0  0  0  0  0  0  0  0  0  0  0  0
   -2.2021   -0.1318   -1.5324 H   0  0  0  0  0  0  0  0  0  0  0  0
   -2.9486    1.4794    0.0890 H   0  0  0  0  0  0  0  0  0  0  0  0
   -1.6340    0.9863    1.2531 H   0  0  0  0  0  0  0  0  0  0  0  0
  1  2  1  0  0  0  0
  2  3  1  0  0  0  0
  3  4  1  0  0  0  0
  4  5  1  0  0  0  0
  5  6  2  0  0  0  0
  1  7  1  0  0  0  0
  1  8  1  0  0  0  0
  1  9  1  0  0  0  0
  2 10  1  0  0  0  0
  2 11  1  0  0  0  0
  3 12  1  0  0  0  0
  3 13  1  0  0  0  0
  4 14  1  0  0  0  0
  4 15  1  0  0  0  0
  5 16  1  0  0  0  0
  6 17  1  0  0  0  0
  6 18  1  0  0  0  0
M  END
