 xtb: 6.7.1 (edcfbbe)
          04112514463D

 23 22  0     0  0            999 V2000
    2.8777   -0.2092   -0.8412 C   0  0  0  0  0  0  0  0  0  0  0  0
    2.3301   -0.1735    0.5813 C   0  0  0  0  0  0  0  0  0  0  0  0
    0.8532   -0.5622    0.6655 C   0  0  0  0  0  0  0  0  0  0  0  0
   -0.0681    0.4427   -0.0251 C   0  0  0  0  0  0  0  0  0  0  0  0
   -1.5533    0.2283    0.2879 C   0  0  0  0  0  0  0  0  0  0  0  0
   -2.3762    1.3813   -0.2860 C   0  0  0  0  0  0  0  0  0  0  0  0
   -2.0628   -1.1000   -0.2673 C   0  0  0  0  0  0  0  0  0  0  0  0
    3.9463   -0.0072   -0.8393 H   0  0  0  0  0  0  0  0  0  0  0  0
    2.7142   -1.1883   -1.2861 H   0  0  0  0  0  0  0  0  0  0  0  0
    2.3927    0.5381   -1.4631 H   0  0  0  0  0  0  0  0  0  0  0  0
    2.4640    0.8282    0.9962 H   0  0  0  0  0  0  0  0  0  0  0  0
    2.9073   -0.8658    1.1989 H   0  0  0  0  0  0  0  0  0  0  0  0
    0.7242   -1.5509    0.2219 H   0  0  0  0  0  0  0  0  0  0  0  0
    0.5711   -0.6305    1.7195 H   0  0  0  0  0  0  0  0  0  0  0  0
    0.2117    1.4487    0.2989 H   0  0  0  0  0  0  0  0  0  0  0  0
    0.0728    0.3908   -1.1061 H   0  0  0  0  0  0  0  0  0  0  0  0
   -1.6800    0.2217    1.3770 H   0  0  0  0  0  0  0  0  0  0  0  0
   -2.0437    2.3329    0.1226 H   0  0  0  0  0  0  0  0  0  0  0  0
   -2.2718    1.4171   -1.3684 H   0  0  0  0  0  0  0  0  0  0  0  0
   -3.4297    1.2552   -0.0472 H   0  0  0  0  0  0  0  0  0  0  0  0
   -3.1286   -1.2042   -0.0765 H   0  0  0  0  0  0  0  0  0  0  0  0
   -1.5524   -1.9392    0.1968 H   0  0  0  0  0  0  0  0  0  0  0  0
   -1.9010   -1.1464   -1.3422 H   0  0  0  0  0  0  0  0  0  0  0  0
  1  2  1  0  0  0  0
  2  3  1  0  0  0  0
  3  4  1  0  0  0  0
  4  5  1  0  0  0  0
  5  6  1  0  0  0  0
  5  7  1  0  0  0  0
  1  8  1  0  0  0  0
  1  9  1  0  0  0  0
  1 10  1  0  0  0  0
  2 11  1  0  0  0  0
  2 12  1  0  0  0  0
  3 13  1  0  0  0  0
  3 14  1  0  0  0  0
  4 15  1  0  0  0  0
  4 16  1  0  0  0  0
  5 17  1  0  0  0  0
  6 18  1  0  0  0  0
  6 19  1  0  0  0  0
  6 20  1  0  0  0  0
  7 21  1  0  0  0  0
  7 22  1  0  0  0  0
  7 23  1  0  0  0  0
M  END
