 xtb: 6.7.1 (edcfbbe)
          04112516293D

 20 19  0     0  0            999 V2000
   -2.3875   -1.2887    0.2799 C   0  0  0  0  0  0  0  0  0  0  0  0
   -2.6965    0.2035    0.2674 C   0  0  0  0  0  0  0  0  0  0  0  0
   -1.6567    1.0288   -0.4921 C   0  0  0  0  0  0  0  0  0  0  0  0
   -0.2869    1.0635    0.1750 C   0  0  0  0  0  0  0  0  0  0  0  0
    0.4176   -0.1582   -0.0921 O   0  0  0  0  0  0  0  0  0  0  0  0
    1.7394   -0.1544    0.0072 C   0  0  0  0  0  0  0  0  0  0  0  0
    2.3821    0.8297    0.3166 O   0  0  0  0  0  0  0  0  0  0  0  0
    2.3249   -1.5011   -0.2949 C   0  0  0  0  0  0  0  0  0  0  0  0
   -3.1834   -1.8336    0.7818 H   0  0  0  0  0  0  0  0  0  0  0  0
   -2.2987   -1.6654   -0.7361 H   0  0  0  0  0  0  0  0  0  0  0  0
   -1.4536   -1.4854    0.7982 H   0  0  0  0  0  0  0  0  0  0  0  0
   -3.6675    0.3616   -0.2059 H   0  0  0  0  0  0  0  0  0  0  0  0
   -2.7646    0.5704    1.2937 H   0  0  0  0  0  0  0  0  0  0  0  0
   -1.5395    0.6337   -1.5022 H   0  0  0  0  0  0  0  0  0  0  0  0
   -2.0083    2.0584   -0.5661 H   0  0  0  0  0  0  0  0  0  0  0  0
    0.3188    1.8919   -0.2082 H   0  0  0  0  0  0  0  0  0  0  0  0
   -0.3764    1.1788    1.2602 H   0  0  0  0  0  0  0  0  0  0  0  0
    2.5159   -2.0115    0.6469 H   0  0  0  0  0  0  0  0  0  0  0  0
    3.2714   -1.3768   -0.8119 H   0  0  0  0  0  0  0  0  0  0  0  0
    1.6275   -2.0864   -0.8842 H   0  0  0  0  0  0  0  0  0  0  0  0
  1  2  1  0  0  0  0
  2  3  1  0  0  0  0
  3  4  1  0  0  0  0
  4  5  1  0  0  0  0
  5  6  1  0  0  0  0
  6  7  2  0  0  0  0
  6  8  1  0  0  0  0
  1  9  1  0  0  0  0
  1 10  1  0  0  0  0
  1 11  1  0  0  0  0
  2 12  1  0  0  0  0
  2 13  1  0  0  0  0
  3 14  1  0  0  0  0
  3 15  1  0  0  0  0
  4 16  1  0  0  0  0
  4 17  1  0  0  0  0
  8 18  1  0  0  0  0
  8 19  1  0  0  0  0
  8 20  1  0  0  0  0
M  END
