 xtb: 6.7.1 (edcfbbe)
          04112514233D

 18 17  0     0  0            999 V2000
    2.4725    0.7855    0.2777 C   0  0  0  0  0  0  0  0  0  0  0  0
    1.9298   -0.6090   -0.0149 C   0  0  0  0  0  0  0  0  0  0  0  0
    0.4961   -0.5992   -0.5460 C   0  0  0  0  0  0  0  0  0  0  0  0
   -0.5288   -0.1248    0.4898 C   0  0  0  0  0  0  0  0  0  0  0  0
   -1.9225   -0.2609   -0.0337 C   0  0  0  0  0  0  0  0  0  0  0  0
   -2.7666    0.7414   -0.1920 C   0  0  0  0  0  0  0  0  0  0  0  0
    3.5191    0.7286    0.5673 H   0  0  0  0  0  0  0  0  0  0  0  0
    1.9227    1.2569    1.0878 H   0  0  0  0  0  0  0  0  0  0  0  0
    2.3944    1.4157   -0.6055 H   0  0  0  0  0  0  0  0  0  0  0  0
    2.5702   -1.0866   -0.7601 H   0  0  0  0  0  0  0  0  0  0  0  0
    1.9733   -1.2134    0.8941 H   0  0  0  0  0  0  0  0  0  0  0  0
    0.4390    0.0462   -1.4256 H   0  0  0  0  0  0  0  0  0  0  0  0
    0.2319   -1.6117   -0.8611 H   0  0  0  0  0  0  0  0  0  0  0  0
   -0.4248   -0.7363    1.3909 H   0  0  0  0  0  0  0  0  0  0  0  0
   -0.3401    0.9153    0.7564 H   0  0  0  0  0  0  0  0  0  0  0  0
   -2.2182   -1.2673   -0.3027 H   0  0  0  0  0  0  0  0  0  0  0  0
   -3.7613    0.5971   -0.5781 H   0  0  0  0  0  0  0  0  0  0  0  0
   -2.4975    1.7531    0.0646 H   0  0  0  0  0  0  0  0  0  0  0  0
  1  2  1  0  0  0  0
  2  3  1  0  0  0  0
  3  4  1  0  0  0  0
  4  5  1  0  0  0  0
  5  6  2  0  0  0  0
  1  7  1  0  0  0  0
  1  8  1  0  0  0  0
  1  9  1  0  0  0  0
  2 10  1  0  0  0  0
  2 11  1  0  0  0  0
  3 12  1  0  0  0  0
  3 13  1  0  0  0  0
  4 14  1  0  0  0  0
  4 15  1  0  0  0  0
  5 16  1  0  0  0  0
  6 17  1  0  0  0  0
  6 18  1  0  0  0  0
M  END
