 xtb: 6.7.1 (edcfbbe)
          04112516263D

 20 19  0     0  0            999 V2000
   -3.4799    0.4014   -0.0709 C   0  0  0  0  0  0  0  0  0  0  0  0
   -2.6055   -0.7179    0.4820 C   0  0  0  0  0  0  0  0  0  0  0  0
   -1.1859   -0.7110   -0.0852 C   0  0  0  0  0  0  0  0  0  0  0  0
   -0.3795    0.5201    0.3570 C   0  0  0  0  0  0  0  0  0  0  0  0
    1.0152    0.4073   -0.1924 C   0  0  0  0  0  0  0  0  0  0  0  0
    1.3795    0.8335   -1.2688 O   0  0  0  0  0  0  0  0  0  0  0  0
    1.8154   -0.2613    0.6309 O   0  0  0  0  0  0  0  0  0  0  0  0
    3.1606   -0.4921    0.2049 C   0  0  0  0  0  0  0  0  0  0  0  0
   -3.1174    1.3756    0.2451 H   0  0  0  0  0  0  0  0  0  0  0  0
   -3.4910    0.3731   -1.1580 H   0  0  0  0  0  0  0  0  0  0  0  0
   -4.5007    0.2892    0.2856 H   0  0  0  0  0  0  0  0  0  0  0  0
   -2.5592   -0.6418    1.5697 H   0  0  0  0  0  0  0  0  0  0  0  0
   -3.0625   -1.6779    0.2346 H   0  0  0  0  0  0  0  0  0  0  0  0
   -1.2262   -0.7350   -1.1764 H   0  0  0  0  0  0  0  0  0  0  0  0
   -0.6632   -1.6079    0.2540 H   0  0  0  0  0  0  0  0  0  0  0  0
   -0.3332    0.5571    1.4445 H   0  0  0  0  0  0  0  0  0  0  0  0
   -0.8335    1.4273   -0.0378 H   0  0  0  0  0  0  0  0  0  0  0  0
    3.6705    0.4595    0.0509 H   0  0  0  0  0  0  0  0  0  0  0  0
    3.1646   -1.0516   -0.7312 H   0  0  0  0  0  0  0  0  0  0  0  0
    3.6272   -1.0607    1.0030 H   0  0  0  0  0  0  0  0  0  0  0  0
  1  2  1  0  0  0  0
  2  3  1  0  0  0  0
  3  4  1  0  0  0  0
  4  5  1  0  0  0  0
  5  6  2  0  0  0  0
  5  7  1  0  0  0  0
  7  8  1  0  0  0  0
  1  9  1  0  0  0  0
  1 10  1  0  0  0  0
  1 11  1  0  0  0  0
  2 12  1  0  0  0  0
  2 13  1  0  0  0  0
  3 14  1  0  0  0  0
  3 15  1  0  0  0  0
  4 16  1  0  0  0  0
  4 17  1  0  0  0  0
  8 18  1  0  0  0  0
  8 19  1  0  0  0  0
  8 20  1  0  0  0  0
M  END
