 xtb: 6.7.1 (edcfbbe)
          04112516273D

 19 18  0     0  0            999 V2000
   -2.9002   -0.8531   -0.1984 C   0  0  0  0  0  0  0  0  0  0  0  0
   -1.7617    0.1301   -0.4440 C   0  0  0  0  0  0  0  0  0  0  0  0
   -0.8034    0.1846    0.7446 C   0  0  0  0  0  0  0  0  0  0  0  0
    0.2925    1.2402    0.5971 C   0  0  0  0  0  0  0  0  0  0  0  0
    1.3052    0.9162   -0.5088 C   0  0  0  0  0  0  0  0  0  0  0  0
    1.9934   -0.3338   -0.2595 C   0  0  0  0  0  0  0  0  0  0  0  0
    2.5520   -1.3689   -0.0370 C   0  0  0  0  0  0  0  0  0  0  0  0
   -3.5712   -0.8839   -1.0534 H   0  0  0  0  0  0  0  0  0  0  0  0
   -3.4739   -0.5622    0.6790 H   0  0  0  0  0  0  0  0  0  0  0  0
   -2.5070   -1.8538   -0.0332 H   0  0  0  0  0  0  0  0  0  0  0  0
   -1.2213   -0.1744   -1.3419 H   0  0  0  0  0  0  0  0  0  0  0  0
   -2.1751    1.1261   -0.6210 H   0  0  0  0  0  0  0  0  0  0  0  0
   -0.3386   -0.7949    0.8802 H   0  0  0  0  0  0  0  0  0  0  0  0
   -1.3791    0.4066    1.6466 H   0  0  0  0  0  0  0  0  0  0  0  0
    0.8276    1.3247    1.5459 H   0  0  0  0  0  0  0  0  0  0  0  0
   -0.1633    2.2089    0.3800 H   0  0  0  0  0  0  0  0  0  0  0  0
    2.0479    1.7168   -0.5642 H   0  0  0  0  0  0  0  0  0  0  0  0
    0.8012    0.8556   -1.4760 H   0  0  0  0  0  0  0  0  0  0  0  0
    3.0482   -2.2737    0.1497 H   0  0  0  0  0  0  0  0  0  0  0  0
  1  2  1  0  0  0  0
  2  3  1  0  0  0  0
  3  4  1  0  0  0  0
  4  5  1  0  0  0  0
  5  6  1  0  0  0  0
  6  7  3  0  0  0  0
  1  8  1  0  0  0  0
  1  9  1  0  0  0  0
  1 10  1  0  0  0  0
  2 11  1  0  0  0  0
  2 12  1  0  0  0  0
  3 13  1  0  0  0  0
  3 14  1  0  0  0  0
  4 15  1  0  0  0  0
  4 16  1  0  0  0  0
  5 17  1  0  0  0  0
  5 18  1  0  0  0  0
  7 19  1  0  0  0  0
M  END
