 xtb: 6.7.1 (edcfbbe)
          04112517153D

 20 19  0     0  0            999 V2000
   -3.3558   -0.8725    0.4805 C   0  0  0  0  0  0  0  0  0  0  0  0
   -2.8102    0.4791    0.0326 C   0  0  0  0  0  0  0  0  0  0  0  0
   -1.4201    0.3852   -0.5952 C   0  0  0  0  0  0  0  0  0  0  0  0
   -0.3472   -0.0456    0.4018 C   0  0  0  0  0  0  0  0  0  0  0  0
    1.0399    0.0805   -0.1692 C   0  0  0  0  0  0  0  0  0  0  0  0
    1.3328    0.6388   -1.2045 O   0  0  0  0  0  0  0  0  0  0  0  0
    1.9418   -0.4983    0.6215 O   0  0  0  0  0  0  0  0  0  0  0  0
    3.3117   -0.4366    0.2154 C   0  0  0  0  0  0  0  0  0  0  0  0
   -3.3506   -1.5766   -0.3483 H   0  0  0  0  0  0  0  0  0  0  0  0
   -2.7615   -1.2861    1.2904 H   0  0  0  0  0  0  0  0  0  0  0  0
   -4.3788   -0.7655    0.8322 H   0  0  0  0  0  0  0  0  0  0  0  0
   -3.4904    0.9084   -0.7054 H   0  0  0  0  0  0  0  0  0  0  0  0
   -2.7762    1.1594    0.8858 H   0  0  0  0  0  0  0  0  0  0  0  0
   -1.1388    1.3584   -1.0030 H   0  0  0  0  0  0  0  0  0  0  0  0
   -1.4400   -0.3200   -1.4284 H   0  0  0  0  0  0  0  0  0  0  0  0
   -0.4835   -1.0779    0.7234 H   0  0  0  0  0  0  0  0  0  0  0  0
   -0.3862    0.5843    1.2939 H   0  0  0  0  0  0  0  0  0  0  0  0
    3.4444   -0.9672   -0.7281 H   0  0  0  0  0  0  0  0  0  0  0  0
    3.8745   -0.9113    1.0126 H   0  0  0  0  0  0  0  0  0  0  0  0
    3.6157    0.6025    0.0836 H   0  0  0  0  0  0  0  0  0  0  0  0
  1  2  1  0  0  0  0
  2  3  1  0  0  0  0
  3  4  1  0  0  0  0
  4  5  1  0  0  0  0
  5  6  2  0  0  0  0
  5  7  1  0  0  0  0
  7  8  1  0  0  0  0
  1  9  1  0  0  0  0
  1 10  1  0  0  0  0
  1 11  1  0  0  0  0
  2 12  1  0  0  0  0
  2 13  1  0  0  0  0
  3 14  1  0  0  0  0
  3 15  1  0  0  0  0
  4 16  1  0  0  0  0
  4 17  1  0  0  0  0
  8 18  1  0  0  0  0
  8 19  1  0  0  0  0
  8 20  1  0  0  0  0
M  END
