 xtb: 6.7.1 (edcfbbe)
          04112516113D

 17 16  0     0  0            999 V2000
   -3.4005    0.1516   -0.2678 C   0  0  0  0  0  0  0  0  0  0  0  0
   -2.1719    0.2501    0.6287 C   0  0  0  0  0  0  0  0  0  0  0  0
   -0.8854    0.0191   -0.1599 C   0  0  0  0  0  0  0  0  0  0  0  0
    0.3544    0.1329    0.7370 C   0  0  0  0  0  0  0  0  0  0  0  0
    1.5904   -0.1855   -0.0580 C   0  0  0  0  0  0  0  0  0  0  0  0
    1.8486   -1.2741   -0.5277 O   0  0  0  0  0  0  0  0  0  0  0  0
    2.3791    0.8641   -0.2214 O   0  0  0  0  0  0  0  0  0  0  0  0
   -3.4586   -0.8323   -0.7274 H   0  0  0  0  0  0  0  0  0  0  0  0
   -4.3066    0.3162    0.3093 H   0  0  0  0  0  0  0  0  0  0  0  0
   -3.3562    0.8963   -1.0591 H   0  0  0  0  0  0  0  0  0  0  0  0
   -2.2440   -0.4914    1.4264 H   0  0  0  0  0  0  0  0  0  0  0  0
   -2.1381    1.2379    1.0920 H   0  0  0  0  0  0  0  0  0  0  0  0
   -0.9012   -0.9746   -0.6128 H   0  0  0  0  0  0  0  0  0  0  0  0
   -0.8158    0.7532   -0.9655 H   0  0  0  0  0  0  0  0  0  0  0  0
    0.2738   -0.5899    1.5501 H   0  0  0  0  0  0  0  0  0  0  0  0
    0.4439    1.1390    1.1440 H   0  0  0  0  0  0  0  0  0  0  0  0
    3.1745    0.6664   -0.7538 H   0  0  0  0  0  0  0  0  0  0  0  0
  1  2  1  0  0  0  0
  2  3  1  0  0  0  0
  3  4  1  0  0  0  0
  4  5  1  0  0  0  0
  5  6  2  0  0  0  0
  5  7  1  0  0  0  0
  1  8  1  0  0  0  0
  1  9  1  0  0  0  0
  1 10  1  0  0  0  0
  2 11  1  0  0  0  0
  2 12  1  0  0  0  0
  3 13  1  0  0  0  0
  3 14  1  0  0  0  0
  4 15  1  0  0  0  0
  4 16  1  0  0  0  0
  7 17  1  0  0  0  0
M  END
