 xtb: 6.7.1 (edcfbbe)
          04112514523D

 17 16  0     0  0            999 V2000
    2.3495   -1.2942   -0.1271 C   0  0  0  0  0  0  0  0  0  0  0  0
    2.1777    0.0226    0.6231 C   0  0  0  0  0  0  0  0  0  0  0  0
    1.4926    1.0857   -0.2339 C   0  0  0  0  0  0  0  0  0  0  0  0
    0.0483    0.8865   -0.5093 C   0  0  0  0  0  0  0  0  0  0  0  0
   -0.7818    0.0080    0.0688 C   0  0  0  0  0  0  0  0  0  0  0  0
   -2.1778   -0.0551   -0.2883 C   0  0  0  0  0  0  0  0  0  0  0  0
   -2.9970   -0.8178    0.1943 O   0  0  0  0  0  0  0  0  0  0  0  0
    1.3893   -1.6848   -0.4544 H   0  0  0  0  0  0  0  0  0  0  0  0
    2.9755   -1.1512   -1.0051 H   0  0  0  0  0  0  0  0  0  0  0  0
    2.8226   -2.0360    0.5114 H   0  0  0  0  0  0  0  0  0  0  0  0
    3.1625    0.3938    0.9121 H   0  0  0  0  0  0  0  0  0  0  0  0
    1.6082   -0.1399    1.5387 H   0  0  0  0  0  0  0  0  0  0  0  0
    2.0132    1.1711   -1.1919 H   0  0  0  0  0  0  0  0  0  0  0  0
    1.5871    2.0628    0.2518 H   0  0  0  0  0  0  0  0  0  0  0  0
   -0.3649    1.5582   -1.2533 H   0  0  0  0  0  0  0  0  0  0  0  0
   -0.4577   -0.6904    0.8253 H   0  0  0  0  0  0  0  0  0  0  0  0
   -2.4925    0.6625   -1.0698 H   0  0  0  0  0  0  0  0  0  0  0  0
  1  2  1  0  0  0  0
  2  3  1  0  0  0  0
  3  4  1  0  0  0  0
  4  5  2  0  0  0  0
  5  6  1  0  0  0  0
  6  7  2  0  0  0  0
  1  8  1  0  0  0  0
  1  9  1  0  0  0  0
  1 10  1  0  0  0  0
  2 11  1  0  0  0  0
  2 12  1  0  0  0  0
  3 13  1  0  0  0  0
  3 14  1  0  0  0  0
  4 15  1  0  0  0  0
  5 16  1  0  0  0  0
  6 17  1  0  0  0  0
M  END
