 xtb: 6.7.1 (edcfbbe)
          04112516263D

 20 19  0     0  0            999 V2000
   -3.2258   -0.2413    1.0078 C   0  0  0  0  0  0  0  0  0  0  0  0
   -2.7197   -0.3449   -0.4263 C   0  0  0  0  0  0  0  0  0  0  0  0
   -1.2060   -0.5355   -0.5193 C   0  0  0  0  0  0  0  0  0  0  0  0
   -0.4265    0.6763    0.0129 C   0  0  0  0  0  0  0  0  0  0  0  0
    1.0420    0.4829   -0.2469 C   0  0  0  0  0  0  0  0  0  0  0  0
    1.6841    1.0696   -1.0938 O   0  0  0  0  0  0  0  0  0  0  0  0
    1.5620   -0.4460    0.5470 O   0  0  0  0  0  0  0  0  0  0  0  0
    2.9436   -0.7749    0.3820 C   0  0  0  0  0  0  0  0  0  0  0  0
   -4.3124   -0.2144    1.0189 H   0  0  0  0  0  0  0  0  0  0  0  0
   -2.8977   -1.0991    1.5899 H   0  0  0  0  0  0  0  0  0  0  0  0
   -2.8618    0.6634    1.4867 H   0  0  0  0  0  0  0  0  0  0  0  0
   -3.1978   -1.1987   -0.9105 H   0  0  0  0  0  0  0  0  0  0  0  0
   -3.0047    0.5519   -0.9795 H   0  0  0  0  0  0  0  0  0  0  0  0
   -0.9332   -0.6951   -1.5652 H   0  0  0  0  0  0  0  0  0  0  0  0
   -0.9105   -1.4209    0.0463 H   0  0  0  0  0  0  0  0  0  0  0  0
   -0.5800    0.7699    1.0868 H   0  0  0  0  0  0  0  0  0  0  0  0
   -0.7503    1.5851   -0.4938 H   0  0  0  0  0  0  0  0  0  0  0  0
    3.0724   -1.7554    0.8303 H   0  0  0  0  0  0  0  0  0  0  0  0
    3.5593   -0.0332    0.8916 H   0  0  0  0  0  0  0  0  0  0  0  0
    3.2009   -0.7873   -0.6778 H   0  0  0  0  0  0  0  0  0  0  0  0
  1  2  1  0  0  0  0
  2  3  1  0  0  0  0
  3  4  1  0  0  0  0
  4  5  1  0  0  0  0
  5  6  2  0  0  0  0
  5  7  1  0  0  0  0
  7  8  1  0  0  0  0
  1  9  1  0  0  0  0
  1 10  1  0  0  0  0
  1 11  1  0  0  0  0
  2 12  1  0  0  0  0
  2 13  1  0  0  0  0
  3 14  1  0  0  0  0
  3 15  1  0  0  0  0
  4 16  1  0  0  0  0
  4 17  1  0  0  0  0
  8 18  1  0  0  0  0
  8 19  1  0  0  0  0
  8 20  1  0  0  0  0
M  END
