 xtb: 6.7.1 (edcfbbe)
          04112514053D

 17 16  0     0  0            999 V2000
    3.6498   -0.4709    0.1694 C   0  0  0  0  0  0  0  0  0  0  0  0
    2.2706   -0.4047   -0.4743 C   0  0  0  0  0  0  0  0  0  0  0  0
    1.2760    0.3524    0.4171 C   0  0  0  0  0  0  0  0  0  0  0  0
   -0.0573    0.4536   -0.2214 C   0  0  0  0  0  0  0  0  0  0  0  0
   -1.2109    0.0723    0.3410 C   0  0  0  0  0  0  0  0  0  0  0  0
   -2.4756    0.1980   -0.3441 C   0  0  0  0  0  0  0  0  0  0  0  0
   -3.5594   -0.1245    0.1087 O   0  0  0  0  0  0  0  0  0  0  0  0
    3.5994   -0.9756    1.1311 H   0  0  0  0  0  0  0  0  0  0  0  0
    4.3384   -1.0185   -0.4689 H   0  0  0  0  0  0  0  0  0  0  0  0
    4.0478    0.5288    0.3266 H   0  0  0  0  0  0  0  0  0  0  0  0
    1.8976   -1.4162   -0.6449 H   0  0  0  0  0  0  0  0  0  0  0  0
    2.3427    0.0938   -1.4424 H   0  0  0  0  0  0  0  0  0  0  0  0
    1.6601    1.3648    0.5725 H   0  0  0  0  0  0  0  0  0  0  0  0
    1.1983   -0.1369    1.3885 H   0  0  0  0  0  0  0  0  0  0  0  0
   -0.0718    0.8620   -1.2246 H   0  0  0  0  0  0  0  0  0  0  0  0
   -1.2447   -0.3446    1.3377 H   0  0  0  0  0  0  0  0  0  0  0  0
   -2.4120    0.6253   -1.3624 H   0  0  0  0  0  0  0  0  0  0  0  0
  1  2  1  0  0  0  0
  2  3  1  0  0  0  0
  3  4  1  0  0  0  0
  4  5  2  0  0  0  0
  5  6  1  0  0  0  0
  6  7  2  0  0  0  0
  1  8  1  0  0  0  0
  1  9  1  0  0  0  0
  1 10  1  0  0  0  0
  2 11  1  0  0  0  0
  2 12  1  0  0  0  0
  3 13  1  0  0  0  0
  3 14  1  0  0  0  0
  4 15  1  0  0  0  0
  5 16  1  0  0  0  0
  6 17  1  0  0  0  0
M  END
