 xtb: 6.7.1 (edcfbbe)
          04112516113D

 17 16  0     0  0            999 V2000
   -3.0798   -0.6530   -0.8521 C   0  0  0  0  0  0  0  0  0  0  0  0
   -3.0474    0.0377    0.5067 C   0  0  0  0  0  0  0  0  0  0  0  0
   -1.6392    0.3291    1.0294 C   0  0  0  0  0  0  0  0  0  0  0  0
   -0.8457    1.3304    0.1804 C   0  0  0  0  0  0  0  0  0  0  0  0
    0.0651    0.6845   -0.8466 C   0  0  0  0  0  0  0  0  0  0  0  0
    1.5489   -0.3018    0.0125 Br  0  0  0  0  0  0  0  0  0  0  0  0
   -4.0991   -0.9404   -1.0990 H   0  0  0  0  0  0  0  0  0  0  0  0
   -2.4687   -1.5533   -0.8381 H   0  0  0  0  0  0  0  0  0  0  0  0
   -2.7203    0.0068   -1.6380 H   0  0  0  0  0  0  0  0  0  0  0  0
   -3.6081    0.9733    0.4490 H   0  0  0  0  0  0  0  0  0  0  0  0
   -3.5500   -0.6012    1.2360 H   0  0  0  0  0  0  0  0  0  0  0  0
   -1.7364    0.7279    2.0407 H   0  0  0  0  0  0  0  0  0  0  0  0
   -1.0810   -0.6067    1.1071 H   0  0  0  0  0  0  0  0  0  0  0  0
   -1.5366    1.9823   -0.3592 H   0  0  0  0  0  0  0  0  0  0  0  0
   -0.2385    1.9633    0.8309 H   0  0  0  0  0  0  0  0  0  0  0  0
    0.5485    1.4269   -1.4791 H   0  0  0  0  0  0  0  0  0  0  0  0
   -0.4475   -0.0538   -1.4575 H   0  0  0  0  0  0  0  0  0  0  0  0
  1  2  1  0  0  0  0
  2  3  1  0  0  0  0
  3  4  1  0  0  0  0
  4  5  1  0  0  0  0
  5  6  1  0  0  0  0
  1  7  1  0  0  0  0
  1  8  1  0  0  0  0
  1  9  1  0  0  0  0
  2 10  1  0  0  0  0
  2 11  1  0  0  0  0
  3 12  1  0  0  0  0
  3 13  1  0  0  0  0
  4 14  1  0  0  0  0
  4 15  1  0  0  0  0
  5 16  1  0  0  0  0
  5 17  1  0  0  0  0
M  END
