 xtb: 6.7.1 (edcfbbe)
          04112517153D

 20 19  0     0  0            999 V2000
   -3.3380    0.2640    0.9166 C   0  0  0  0  0  0  0  0  0  0  0  0
   -2.8125   -0.4192   -0.3412 C   0  0  0  0  0  0  0  0  0  0  0  0
   -1.4140    0.0512   -0.7391 C   0  0  0  0  0  0  0  0  0  0  0  0
   -0.3441   -0.3497    0.2730 C   0  0  0  0  0  0  0  0  0  0  0  0
    1.0431   -0.0215   -0.2096 C   0  0  0  0  0  0  0  0  0  0  0  0
    1.3261    0.4407   -1.2938 O   0  0  0  0  0  0  0  0  0  0  0  0
    1.9570   -0.3108    0.7153 O   0  0  0  0  0  0  0  0  0  0  0  0
    3.3268   -0.0580    0.3914 C   0  0  0  0  0  0  0  0  0  0  0  0
   -2.7485   -0.0095    1.7873 H   0  0  0  0  0  0  0  0  0  0  0  0
   -3.3064    1.3451    0.8019 H   0  0  0  0  0  0  0  0  0  0  0  0
   -4.3682   -0.0307    1.1003 H   0  0  0  0  0  0  0  0  0  0  0  0
   -2.8009   -1.5004   -0.1910 H   0  0  0  0  0  0  0  0  0  0  0  0
   -3.4923   -0.2077   -1.1686 H   0  0  0  0  0  0  0  0  0  0  0  0
   -1.4090    1.1368   -0.8542 H   0  0  0  0  0  0  0  0  0  0  0  0
   -1.1493   -0.3758   -1.7087 H   0  0  0  0  0  0  0  0  0  0  0  0
   -0.3796   -1.4246    0.4636 H   0  0  0  0  0  0  0  0  0  0  0  0
   -0.4884    0.1559    1.2283 H   0  0  0  0  0  0  0  0  0  0  0  0
    3.9007   -0.4384    1.2302 H   0  0  0  0  0  0  0  0  0  0  0  0
    3.4867    1.0128    0.2611 H   0  0  0  0  0  0  0  0  0  0  0  0
    3.5929   -0.5715   -0.5333 H   0  0  0  0  0  0  0  0  0  0  0  0
  1  2  1  0  0  0  0
  2  3  1  0  0  0  0
  3  4  1  0  0  0  0
  4  5  1  0  0  0  0
  5  6  2  0  0  0  0
  5  7  1  0  0  0  0
  7  8  1  0  0  0  0
  1  9  1  0  0  0  0
  1 10  1  0  0  0  0
  1 11  1  0  0  0  0
  2 12  1  0  0  0  0
  2 13  1  0  0  0  0
  3 14  1  0  0  0  0
  3 15  1  0  0  0  0
  4 16  1  0  0  0  0
  4 17  1  0  0  0  0
  8 18  1  0  0  0  0
  8 19  1  0  0  0  0
  8 20  1  0  0  0  0
M  END
