 xtb: 6.7.1 (edcfbbe)
          04112516273D

 20 19  0     0  0            999 V2000
    3.9739   -0.2776    0.1129 C   0  0  0  0  0  0  0  0  0  0  0  0
    2.6143   -0.0624   -0.4703 C   0  0  0  0  0  0  0  0  0  0  0  0
    2.3126   -0.2111   -1.6338 O   0  0  0  0  0  0  0  0  0  0  0  0
    1.7440    0.3437    0.4617 O   0  0  0  0  0  0  0  0  0  0  0  0
    0.4097    0.6267    0.0549 C   0  0  0  0  0  0  0  0  0  0  0  0
   -0.4169   -0.6613   -0.0375 C   0  0  0  0  0  0  0  0  0  0  0  0
   -1.7492   -0.3799   -0.4524 O   0  0  0  0  0  0  0  0  0  0  0  0
   -2.6151    0.0631    0.4662 C   0  0  0  0  0  0  0  0  0  0  0  0
   -2.3176    0.2231    1.6296 O   0  0  0  0  0  0  0  0  0  0  0  0
   -3.9578    0.3311   -0.1339 C   0  0  0  0  0  0  0  0  0  0  0  0
    4.4275    0.6929    0.3014 H   0  0  0  0  0  0  0  0  0  0  0  0
    4.5888   -0.8341   -0.5863 H   0  0  0  0  0  0  0  0  0  0  0  0
    3.8863   -0.7993    1.0607 H   0  0  0  0  0  0  0  0  0  0  0  0
    0.0011    1.2837    0.8246 H   0  0  0  0  0  0  0  0  0  0  0  0
    0.4172    1.1261   -0.9196 H   0  0  0  0  0  0  0  0  0  0  0  0
   -0.4303   -1.1580    0.9383 H   0  0  0  0  0  0  0  0  0  0  0  0
   -0.0048   -1.3213   -0.8026 H   0  0  0  0  0  0  0  0  0  0  0  0
   -4.7299    0.1761    0.6129 H   0  0  0  0  0  0  0  0  0  0  0  0
   -4.1096   -0.3033   -1.0004 H   0  0  0  0  0  0  0  0  0  0  0  0
   -3.9877    1.3715   -0.4513 H   0  0  0  0  0  0  0  0  0  0  0  0
  1  2  1  0  0  0  0
  2  3  2  0  0  0  0
  2  4  1  0  0  0  0
  4  5  1  0  0  0  0
  5  6  1  0  0  0  0
  6  7  1  0  0  0  0
  7  8  1  0  0  0  0
  8  9  2  0  0  0  0
  8 10  1  0  0  0  0
  1 11  1  0  0  0  0
  1 12  1  0  0  0  0
  1 13  1  0  0  0  0
  5 14  1  0  0  0  0
  5 15  1  0  0  0  0
  6 16  1  0  0  0  0
  6 17  1  0  0  0  0
 10 18  1  0  0  0  0
 10 19  1  0  0  0  0
 10 20  1  0  0  0  0
M  END
