 xtb: 6.7.1 (edcfbbe)
          04112514273D

 16 15  0     0  0            999 V2000
   -2.5066   -0.8515   -0.2635 C   0  0  0  0  0  0  0  0  0  0  0  0
   -1.3701   -0.2907    0.3571 O   0  0  0  0  0  0  0  0  0  0  0  0
   -0.5989    0.5061   -0.5177 C   0  0  0  0  0  0  0  0  0  0  0  0
    0.6073    1.0630    0.2432 C   0  0  0  0  0  0  0  0  0  0  0  0
    1.5535    0.0980    0.6439 O   0  0  0  0  0  0  0  0  0  0  0  0
    2.3358   -0.4430   -0.4027 C   0  0  0  0  0  0  0  0  0  0  0  0
   -3.0155   -1.4305    0.5024 H   0  0  0  0  0  0  0  0  0  0  0  0
   -2.2183   -1.5063   -1.0935 H   0  0  0  0  0  0  0  0  0  0  0  0
   -3.1716   -0.0669   -0.6412 H   0  0  0  0  0  0  0  0  0  0  0  0
   -0.2744   -0.0916   -1.3817 H   0  0  0  0  0  0  0  0  0  0  0  0
   -1.2006    1.3492   -0.8881 H   0  0  0  0  0  0  0  0  0  0  0  0
    0.2549    1.5101    1.1746 H   0  0  0  0  0  0  0  0  0  0  0  0
    1.0906    1.8293   -0.3791 H   0  0  0  0  0  0  0  0  0  0  0  0
    3.1088   -1.0344    0.0819 H   0  0  0  0  0  0  0  0  0  0  0  0
    2.7956    0.3552   -0.9954 H   0  0  0  0  0  0  0  0  0  0  0  0
    1.7465   -1.0888   -1.0598 H   0  0  0  0  0  0  0  0  0  0  0  0
  1  2  1  0  0  0  0
  2  3  1  0  0  0  0
  3  4  1  0  0  0  0
  4  5  1  0  0  0  0
  5  6  1  0  0  0  0
  1  7  1  0  0  0  0
  1  8  1  0  0  0  0
  1  9  1  0  0  0  0
  3 10  1  0  0  0  0
  3 11  1  0  0  0  0
  4 12  1  0  0  0  0
  4 13  1  0  0  0  0
  6 14  1  0  0  0  0
  6 15  1  0  0  0  0
  6 16  1  0  0  0  0
M  END
