 xtb: 6.7.1 (edcfbbe)
          04112517403D

 33 34  0     0  0            999 V2000
   -4.8025    1.0395   -0.6817 C   0  0  0  0  0  0  0  0  0  0  0  0
   -3.6628    0.2339   -0.1308 C   0  0  0  0  0  0  0  0  0  0  0  0
   -3.9324   -0.9193    0.5970 C   0  0  0  0  0  0  0  0  0  0  0  0
   -2.9100   -1.6751    1.1404 C   0  0  0  0  0  0  0  0  0  0  0  0
   -1.5967   -1.2869    0.9634 C   0  0  0  0  0  0  0  0  0  0  0  0
   -1.3060   -0.1486    0.2171 C   0  0  0  0  0  0  0  0  0  0  0  0
   -2.3382    0.6212   -0.3371 C   0  0  0  0  0  0  0  0  0  0  0  0
   -1.9818    1.8450   -1.1292 C   0  0  0  0  0  0  0  0  0  0  0  0
    0.0111    0.2956    0.0601 N   0  0  0  0  0  0  0  0  0  0  0  0
    1.1266   -0.4484   -0.1269 C   0  0  0  0  0  0  0  0  0  0  0  0
    1.0535   -1.7951   -0.5275 C   0  0  0  0  0  0  0  0  0  0  0  0
    2.1873   -2.5424   -0.7259 C   0  0  0  0  0  0  0  0  0  0  0  0
    3.4512   -1.9825   -0.5397 C   0  0  0  0  0  0  0  0  0  0  0  0
    3.5544   -0.6602   -0.1860 C   0  0  0  0  0  0  0  0  0  0  0  0
    2.4149    0.1326    0.0176 C   0  0  0  0  0  0  0  0  0  0  0  0
    2.5866    1.5362    0.3607 C   0  0  0  0  0  0  0  0  0  0  0  0
    1.6808    2.3615    0.4730 O   0  0  0  0  0  0  0  0  0  0  0  0
    3.8534    1.9104    0.5525 O   0  0  0  0  0  0  0  0  0  0  0  0
   -5.7509    0.6237   -0.3528 H   0  0  0  0  0  0  0  0  0  0  0  0
   -4.7414    2.0723   -0.3447 H   0  0  0  0  0  0  0  0  0  0  0  0
   -4.7875    1.0345   -1.7707 H   0  0  0  0  0  0  0  0  0  0  0  0
   -4.9578   -1.2224    0.7482 H   0  0  0  0  0  0  0  0  0  0  0  0
   -3.1363   -2.5590    1.7172 H   0  0  0  0  0  0  0  0  0  0  0  0
   -0.7946   -1.8447    1.4218 H   0  0  0  0  0  0  0  0  0  0  0  0
   -1.7446    2.6736   -0.4604 H   0  0  0  0  0  0  0  0  0  0  0  0
   -1.1057    1.6539   -1.7461 H   0  0  0  0  0  0  0  0  0  0  0  0
   -2.7978    2.1517   -1.7739 H   0  0  0  0  0  0  0  0  0  0  0  0
    0.1715    1.2909    0.1837 H   0  0  0  0  0  0  0  0  0  0  0  0
    0.0819   -2.2281   -0.7045 H   0  0  0  0  0  0  0  0  0  0  0  0
    2.0980   -3.5717   -1.0385 H   0  0  0  0  0  0  0  0  0  0  0  0
    4.3373   -2.5777   -0.6899 H   0  0  0  0  0  0  0  0  0  0  0  0
    4.5227   -0.2010   -0.0648 H   0  0  0  0  0  0  0  0  0  0  0  0
    3.9092    2.8592    0.7719 H   0  0  0  0  0  0  0  0  0  0  0  0
  1  2  1  0  0  0  0
  2  3  4  0  0  0  0
  3  4  4  0  0  0  0
  4  5  4  0  0  0  0
  5  6  4  0  0  0  0
  2  7  4  0  0  0  0
  6  7  4  0  0  0  0
  7  8  1  0  0  0  0
  6  9  1  0  0  0  0
  9 10  4  0  0  0  0
 10 11  4  0  0  0  0
 11 12  2  0  0  0  0
 12 13  4  0  0  0  0
 13 14  4  0  0  0  0
 10 15  4  0  0  0  0
 14 15  4  0  0  0  0
 15 16  1  0  0  0  0
 16 17  2  0  0  0  0
 16 18  1  0  0  0  0
  1 19  1  0  0  0  0
  1 20  1  0  0  0  0
  1 21  1  0  0  0  0
  3 22  1  0  0  0  0
  4 23  1  0  0  0  0
  5 24  1  0  0  0  0
  8 25  1  0  0  0  0
  8 26  1  0  0  0  0
  8 27  1  0  0  0  0
  9 28  1  0  0  0  0
 11 29  1  0  0  0  0
 12 30  1  0  0  0  0
 13 31  1  0  0  0  0
 14 32  1  0  0  0  0
 18 33  1  0  0  0  0
M  END
