 xtb: 6.7.1 (edcfbbe)
          04112516353D

 19 18  0     0  0            999 V2000
    3.3637   -0.0065   -0.4564 C   0  0  0  0  0  0  0  0  0  0  0  0
    1.9421    0.5177   -0.2952 C   0  0  0  0  0  0  0  0  0  0  0  0
    1.1027   -0.3930    0.5989 C   0  0  0  0  0  0  0  0  0  0  0  0
   -0.3153    0.1434    0.7868 C   0  0  0  0  0  0  0  0  0  0  0  0
   -1.1683    0.0248   -0.4533 C   0  0  0  0  0  0  0  0  0  0  0  0
   -0.9244   -0.7565   -1.3515 O   0  0  0  0  0  0  0  0  0  0  0  0
   -2.3573    0.9418   -0.4863 C   0  0  0  0  0  0  0  0  0  0  0  0
    3.9449    0.6546   -1.0944 H   0  0  0  0  0  0  0  0  0  0  0  0
    3.8564   -0.0737    0.5111 H   0  0  0  0  0  0  0  0  0  0  0  0
    3.3537   -0.9967   -0.9062 H   0  0  0  0  0  0  0  0  0  0  0  0
    1.4680    0.5880   -1.2770 H   0  0  0  0  0  0  0  0  0  0  0  0
    1.9732    1.5212    0.1360 H   0  0  0  0  0  0  0  0  0  0  0  0
    1.5862   -0.4877    1.5727 H   0  0  0  0  0  0  0  0  0  0  0  0
    1.0474   -1.3857    0.1469 H   0  0  0  0  0  0  0  0  0  0  0  0
   -0.8254   -0.4369    1.5606 H   0  0  0  0  0  0  0  0  0  0  0  0
   -0.2952    1.1831    1.1145 H   0  0  0  0  0  0  0  0  0  0  0  0
   -2.0070    1.9479   -0.7089 H   0  0  0  0  0  0  0  0  0  0  0  0
   -3.0523    0.6331   -1.2622 H   0  0  0  0  0  0  0  0  0  0  0  0
   -2.8502    0.9618    0.4808 H   0  0  0  0  0  0  0  0  0  0  0  0
  1  2  1  0  0  0  0
  2  3  1  0  0  0  0
  3  4  1  0  0  0  0
  4  5  1  0  0  0  0
  5  6  2  0  0  0  0
  5  7  1  0  0  0  0
  1  8  1  0  0  0  0
  1  9  1  0  0  0  0
  1 10  1  0  0  0  0
  2 11  1  0  0  0  0
  2 12  1  0  0  0  0
  3 13  1  0  0  0  0
  3 14  1  0  0  0  0
  4 15  1  0  0  0  0
  4 16  1  0  0  0  0
  7 17  1  0  0  0  0
  7 18  1  0  0  0  0
  7 19  1  0  0  0  0
M  END
