 xtb: 6.7.1 (edcfbbe)
          04112514143D

 16 15  0     0  0            999 V2000
   -2.5579   -0.6598    0.1753 C   0  0  0  0  0  0  0  0  0  0  0  0
   -1.7840    0.4944   -0.0945 O   0  0  0  0  0  0  0  0  0  0  0  0
   -0.4754    0.2419   -0.5574 C   0  0  0  0  0  0  0  0  0  0  0  0
    0.4742   -0.2525    0.5495 C   0  0  0  0  0  0  0  0  0  0  0  0
    1.7861   -0.4928    0.0888 O   0  0  0  0  0  0  0  0  0  0  0  0
    2.5561    0.6683   -0.1611 C   0  0  0  0  0  0  0  0  0  0  0  0
   -2.5533   -1.3385   -0.6832 H   0  0  0  0  0  0  0  0  0  0  0  0
   -3.5683   -0.3006    0.3551 H   0  0  0  0  0  0  0  0  0  0  0  0
   -2.1972   -1.1911    1.0598 H   0  0  0  0  0  0  0  0  0  0  0  0
   -0.4874   -0.4913   -1.3761 H   0  0  0  0  0  0  0  0  0  0  0  0
   -0.1294    1.2032   -0.9441 H   0  0  0  0  0  0  0  0  0  0  0  0
    0.1339   -1.2184    0.9297 H   0  0  0  0  0  0  0  0  0  0  0  0
    0.4785    0.4764    1.3720 H   0  0  0  0  0  0  0  0  0  0  0  0
    2.1946    1.2131   -1.0371 H   0  0  0  0  0  0  0  0  0  0  0  0
    3.5679    0.3157   -0.3458 H   0  0  0  0  0  0  0  0  0  0  0  0
    2.5482    1.3328    0.7085 H   0  0  0  0  0  0  0  0  0  0  0  0
  1  2  1  0  0  0  0
  2  3  1  0  0  0  0
  3  4  1  0  0  0  0
  4  5  1  0  0  0  0
  5  6  1  0  0  0  0
  1  7  1  0  0  0  0
  1  8  1  0  0  0  0
  1  9  1  0  0  0  0
  3 10  1  0  0  0  0
  3 11  1  0  0  0  0
  4 12  1  0  0  0  0
  4 13  1  0  0  0  0
  6 14  1  0  0  0  0
  6 15  1  0  0  0  0
  6 16  1  0  0  0  0
M  END
