 xtb: 6.7.1 (edcfbbe)
          04112516273D

 20 19  0     0  0            999 V2000
    2.8518   -0.8267   -1.1802 C   0  0  0  0  0  0  0  0  0  0  0  0
    1.7467   -0.4642   -0.2382 C   0  0  0  0  0  0  0  0  0  0  0  0
    1.0084   -1.2560    0.3100 O   0  0  0  0  0  0  0  0  0  0  0  0
    1.6798    0.8543   -0.0534 O   0  0  0  0  0  0  0  0  0  0  0  0
    0.6593    1.3803    0.7963 C   0  0  0  0  0  0  0  0  0  0  0  0
   -0.5970    1.7096   -0.0099 C   0  0  0  0  0  0  0  0  0  0  0  0
   -1.1538    0.5336   -0.6037 O   0  0  0  0  0  0  0  0  0  0  0  0
   -1.8431   -0.2971    0.1831 C   0  0  0  0  0  0  0  0  0  0  0  0
   -2.0848   -0.0529    1.3454 O   0  0  0  0  0  0  0  0  0  0  0  0
   -2.2563   -1.5312   -0.5518 C   0  0  0  0  0  0  0  0  0  0  0  0
    3.6216   -1.3587   -0.6259 H   0  0  0  0  0  0  0  0  0  0  0  0
    3.2668    0.0701   -1.6263 H   0  0  0  0  0  0  0  0  0  0  0  0
    2.4666   -1.4980   -1.9427 H   0  0  0  0  0  0  0  0  0  0  0  0
    0.4204    0.6491    1.5754 H   0  0  0  0  0  0  0  0  0  0  0  0
    1.0706    2.2896    1.2328 H   0  0  0  0  0  0  0  0  0  0  0  0
   -0.3574    2.3603   -0.8506 H   0  0  0  0  0  0  0  0  0  0  0  0
   -1.3351    2.1691    0.6533 H   0  0  0  0  0  0  0  0  0  0  0  0
   -2.4169   -1.3059   -1.6007 H   0  0  0  0  0  0  0  0  0  0  0  0
   -3.1421   -1.9567   -0.0924 H   0  0  0  0  0  0  0  0  0  0  0  0
   -1.4357   -2.2430   -0.4659 H   0  0  0  0  0  0  0  0  0  0  0  0
  1  2  1  0  0  0  0
  2  3  2  0  0  0  0
  2  4  1  0  0  0  0
  4  5  1  0  0  0  0
  5  6  1  0  0  0  0
  6  7  1  0  0  0  0
  7  8  1  0  0  0  0
  8  9  2  0  0  0  0
  8 10  1  0  0  0  0
  1 11  1  0  0  0  0
  1 12  1  0  0  0  0
  1 13  1  0  0  0  0
  5 14  1  0  0  0  0
  5 15  1  0  0  0  0
  6 16  1  0  0  0  0
  6 17  1  0  0  0  0
 10 18  1  0  0  0  0
 10 19  1  0  0  0  0
 10 20  1  0  0  0  0
M  END
