 xtb: 6.7.1 (edcfbbe)
          04112516053D

 26 26  0     0  0            999 V2000
   -3.2869   -2.0133   -0.0919 C   0  0  0  0  0  0  0  0  0  0  0  0
   -3.1243   -0.6984    0.6657 C   0  0  0  0  0  0  0  0  0  0  0  0
   -2.5910    0.4398   -0.2150 C   0  0  0  0  0  0  0  0  0  0  0  0
   -1.0975    0.6457   -0.1921 C   0  0  0  0  0  0  0  0  0  0  0  0
   -0.5872    1.9098   -0.4518 C   0  0  0  0  0  0  0  0  0  0  0  0
    0.7765    2.1447   -0.4593 C   0  0  0  0  0  0  0  0  0  0  0  0
    1.6634    1.1142   -0.2029 C   0  0  0  0  0  0  0  0  0  0  0  0
    1.1615   -0.1685    0.0615 C   0  0  0  0  0  0  0  0  0  0  0  0
   -0.2044   -0.3903    0.0625 C   0  0  0  0  0  0  0  0  0  0  0  0
    2.1232   -1.1268    0.3045 O   0  0  0  0  0  0  0  0  0  0  0  0
    1.7033   -2.4481    0.5733 C   0  0  0  0  0  0  0  0  0  0  0  0
    3.0067    1.3551   -0.2080 O   0  0  0  0  0  0  0  0  0  0  0  0
   -4.0357   -1.9052   -0.8736 H   0  0  0  0  0  0  0  0  0  0  0  0
   -2.3565   -2.3214   -0.5613 H   0  0  0  0  0  0  0  0  0  0  0  0
   -3.6106   -2.8023    0.5833 H   0  0  0  0  0  0  0  0  0  0  0  0
   -2.4629   -0.8364    1.5227 H   0  0  0  0  0  0  0  0  0  0  0  0
   -4.1019   -0.4101    1.0570 H   0  0  0  0  0  0  0  0  0  0  0  0
   -3.0552    1.3791    0.0917 H   0  0  0  0  0  0  0  0  0  0  0  0
   -2.8981    0.2587   -1.2495 H   0  0  0  0  0  0  0  0  0  0  0  0
   -1.2619    2.7285   -0.6515 H   0  0  0  0  0  0  0  0  0  0  0  0
    1.1742    3.1268   -0.6591 H   0  0  0  0  0  0  0  0  0  0  0  0
   -0.5785   -1.3781    0.2683 H   0  0  0  0  0  0  0  0  0  0  0  0
    1.0886   -2.4910    1.4760 H   0  0  0  0  0  0  0  0  0  0  0  0
    2.6195   -3.0139    0.7272 H   0  0  0  0  0  0  0  0  0  0  0  0
    1.1513   -2.8660   -0.2726 H   0  0  0  0  0  0  0  0  0  0  0  0
    3.4715    0.5266   -0.0091 H   0  0  0  0  0  0  0  0  0  0  0  0
  1  2  1  0  0  0  0
  2  3  1  0  0  0  0
  3  4  1  0  0  0  0
  4  5  4  0  0  0  0
  5  6  4  0  0  0  0
  6  7  4  0  0  0  0
  7  8  4  0  0  0  0
  4  9  4  0  0  0  0
  8  9  4  0  0  0  0
  8 10  1  0  0  0  0
 10 11  1  0  0  0  0
  7 12  1  0  0  0  0
  1 13  1  0  0  0  0
  1 14  1  0  0  0  0
  1 15  1  0  0  0  0
  2 16  1  0  0  0  0
  2 17  1  0  0  0  0
  3 18  1  0  0  0  0
  3 19  1  0  0  0  0
  5 20  1  0  0  0  0
  6 21  1  0  0  0  0
  9 22  1  0  0  0  0
 11 23  1  0  0  0  0
 11 24  1  0  0  0  0
 11 25  1  0  0  0  0
 12 26  1  0  0  0  0
M  END
