 xtb: 6.7.1 (edcfbbe)
          04112516123D

 19 18  0     0  0            999 V2000
   -2.6334   -0.8196   -0.4776 C   0  0  0  0  0  0  0  0  0  0  0  0
   -2.1688    0.2428    0.5144 C   0  0  0  0  0  0  0  0  0  0  0  0
   -1.1557    1.2316   -0.0822 C   0  0  0  0  0  0  0  0  0  0  0  0
    0.3014    0.9286    0.2705 C   0  0  0  0  0  0  0  0  0  0  0  0
    0.8048   -0.3982   -0.3075 C   0  0  0  0  0  0  0  0  0  0  0  0
    2.2200   -0.5725   -0.0516 C   0  0  0  0  0  0  0  0  0  0  0  0
    3.3896   -0.6943    0.1721 C   0  0  0  0  0  0  0  0  0  0  0  0
   -1.8009   -1.4108   -0.8481 H   0  0  0  0  0  0  0  0  0  0  0  0
   -3.1241   -0.3515   -1.3285 H   0  0  0  0  0  0  0  0  0  0  0  0
   -3.3448   -1.4921   -0.0030 H   0  0  0  0  0  0  0  0  0  0  0  0
   -3.0480    0.7937    0.8554 H   0  0  0  0  0  0  0  0  0  0  0  0
   -1.7333   -0.2402    1.3916 H   0  0  0  0  0  0  0  0  0  0  0  0
   -1.3771    2.2357    0.2862 H   0  0  0  0  0  0  0  0  0  0  0  0
   -1.2673    1.2534   -1.1683 H   0  0  0  0  0  0  0  0  0  0  0  0
    0.4171    0.9120    1.3570 H   0  0  0  0  0  0  0  0  0  0  0  0
    0.9298    1.7364   -0.1134 H   0  0  0  0  0  0  0  0  0  0  0  0
    0.6378   -0.4173   -1.3881 H   0  0  0  0  0  0  0  0  0  0  0  0
    0.2665   -1.2346    0.1438 H   0  0  0  0  0  0  0  0  0  0  0  0
    4.4142   -0.8124    0.3617 H   0  0  0  0  0  0  0  0  0  0  0  0
  1  2  1  0  0  0  0
  2  3  1  0  0  0  0
  3  4  1  0  0  0  0
  4  5  1  0  0  0  0
  5  6  1  0  0  0  0
  6  7  3  0  0  0  0
  1  8  1  0  0  0  0
  1  9  1  0  0  0  0
  1 10  1  0  0  0  0
  2 11  1  0  0  0  0
  2 12  1  0  0  0  0
  3 13  1  0  0  0  0
  3 14  1  0  0  0  0
  4 15  1  0  0  0  0
  4 16  1  0  0  0  0
  5 17  1  0  0  0  0
  5 18  1  0  0  0  0
  7 19  1  0  0  0  0
M  END
