 xtb: 6.7.1 (edcfbbe)
          04112516423D

 26 25  0     0  0            999 V2000
    1.3067    1.3823   -0.9500 C   0  0  0  0  0  0  0  0  0  0  0  0
    1.5372    0.1656   -0.0559 C   0  0  0  0  0  0  0  0  0  0  0  0
    1.5878   -1.1290   -0.8640 C   0  0  0  0  0  0  0  0  0  0  0  0
    0.4652    0.0822    0.9922 C   0  0  0  0  0  0  0  0  0  0  0  0
   -0.7807   -0.0608    0.8628 N   0  0  0  0  0  0  0  0  0  0  0  0
   -1.2858   -0.1613   -0.4513 O   0  0  0  0  0  0  0  0  0  0  0  0
   -2.6479   -0.3218   -0.5411 C   0  0  0  0  0  0  0  0  0  0  0  0
   -3.1097   -0.4104   -1.6641 O   0  0  0  0  0  0  0  0  0  0  0  0
   -3.3117   -0.3639    0.6044 N   0  0  0  0  0  0  0  0  0  0  0  0
   -4.7452   -0.5284    0.6796 C   0  0  0  0  0  0  0  0  0  0  0  0
    3.1082    0.3812    0.9202 S   0  0  0  0  0  0  0  0  0  0  0  0
    4.4084    0.3493   -0.3454 C   0  0  0  0  0  0  0  0  0  0  0  0
    2.0729    1.4377   -1.7190 H   0  0  0  0  0  0  0  0  0  0  0  0
    0.3386    1.3000   -1.4399 H   0  0  0  0  0  0  0  0  0  0  0  0
    1.3295    2.2950   -0.3583 H   0  0  0  0  0  0  0  0  0  0  0  0
    1.8335   -1.9690   -0.2175 H   0  0  0  0  0  0  0  0  0  0  0  0
    2.3311   -1.0538   -1.6532 H   0  0  0  0  0  0  0  0  0  0  0  0
    0.6192   -1.3092   -1.3261 H   0  0  0  0  0  0  0  0  0  0  0  0
    0.7727    0.1517    2.0282 H   0  0  0  0  0  0  0  0  0  0  0  0
   -2.7768   -0.2739    1.4594 H   0  0  0  0  0  0  0  0  0  0  0  0
   -4.9873   -1.4345    1.2327 H   0  0  0  0  0  0  0  0  0  0  0  0
   -5.1302   -0.6071   -0.3352 H   0  0  0  0  0  0  0  0  0  0  0  0
   -5.1935    0.3321    1.1738 H   0  0  0  0  0  0  0  0  0  0  0  0
    5.3311    0.5495    0.1892 H   0  0  0  0  0  0  0  0  0  0  0  0
    4.2316    1.1281   -1.0796 H   0  0  0  0  0  0  0  0  0  0  0  0
    4.4538   -0.6316   -0.8068 H   0  0  0  0  0  0  0  0  0  0  0  0
  1  2  1  0  0  0  0
  2  3  1  0  0  0  0
  2  4  1  0  0  0  0
  4  5  2  0  0  0  0
  5  6  1  0  0  0  0
  6  7  1  0  0  0  0
  7  8  2  0  0  0  0
  7  9  4  0  0  0  0
  9 10  1  0  0  0  0
  2 11  1  0  0  0  0
 11 12  1  0  0  0  0
  1 13  1  0  0  0  0
  1 14  1  0  0  0  0
  1 15  1  0  0  0  0
  3 16  1  0  0  0  0
  3 17  1  0  0  0  0
  3 18  1  0  0  0  0
  4 19  1  0  0  0  0
  9 20  1  0  0  0  0
 10 21  1  0  0  0  0
 10 22  1  0  0  0  0
 10 23  1  0  0  0  0
 12 24  1  0  0  0  0
 12 25  1  0  0  0  0
 12 26  1  0  0  0  0
M  END
