 xtb: 6.7.1 (edcfbbe)
          04112514233D

 18 17  0     0  0            999 V2000
    3.0325    0.2724   -0.2063 C   0  0  0  0  0  0  0  0  0  0  0  0
    1.7817   -0.2112    0.5182 C   0  0  0  0  0  0  0  0  0  0  0  0
    0.5192    0.0367   -0.3037 C   0  0  0  0  0  0  0  0  0  0  0  0
   -0.7408   -0.4456    0.4218 C   0  0  0  0  0  0  0  0  0  0  0  0
   -1.9652   -0.2154   -0.4044 C   0  0  0  0  0  0  0  0  0  0  0  0
   -2.9902    0.5307   -0.0375 C   0  0  0  0  0  0  0  0  0  0  0  0
    3.9186    0.0875    0.3958 H   0  0  0  0  0  0  0  0  0  0  0  0
    2.9681    1.3398   -0.4054 H   0  0  0  0  0  0  0  0  0  0  0  0
    3.1472   -0.2458   -1.1557 H   0  0  0  0  0  0  0  0  0  0  0  0
    1.8727   -1.2799    0.7255 H   0  0  0  0  0  0  0  0  0  0  0  0
    1.6949    0.3056    1.4766 H   0  0  0  0  0  0  0  0  0  0  0  0
    0.4247    1.1052   -0.5113 H   0  0  0  0  0  0  0  0  0  0  0  0
    0.6043   -0.4807   -1.2622 H   0  0  0  0  0  0  0  0  0  0  0  0
   -0.6420   -1.5162    0.6237 H   0  0  0  0  0  0  0  0  0  0  0  0
   -0.8353    0.0729    1.3778 H   0  0  0  0  0  0  0  0  0  0  0  0
   -1.9665   -0.7031   -1.3711 H   0  0  0  0  0  0  0  0  0  0  0  0
   -3.8506    0.6722   -0.6690 H   0  0  0  0  0  0  0  0  0  0  0  0
   -3.0132    1.0290    0.9179 H   0  0  0  0  0  0  0  0  0  0  0  0
  1  2  1  0  0  0  0
  2  3  1  0  0  0  0
  3  4  1  0  0  0  0
  4  5  1  0  0  0  0
  5  6  2  0  0  0  0
  1  7  1  0  0  0  0
  1  8  1  0  0  0  0
  1  9  1  0  0  0  0
  2 10  1  0  0  0  0
  2 11  1  0  0  0  0
  3 12  1  0  0  0  0
  3 13  1  0  0  0  0
  4 14  1  0  0  0  0
  4 15  1  0  0  0  0
  5 16  1  0  0  0  0
  6 17  1  0  0  0  0
  6 18  1  0  0  0  0
M  END
