 xtb: 6.7.1 (edcfbbe)
          04112514133D

 23 22  0     0  0            999 V2000
    2.3176    0.6395    0.7568 C   0  0  0  0  0  0  0  0  0  0  0  0
    2.2538   -0.4568   -0.3000 C   0  0  0  0  0  0  0  0  0  0  0  0
    0.8860   -1.1366   -0.3943 C   0  0  0  0  0  0  0  0  0  0  0  0
   -0.2357   -0.2029   -0.8728 C   0  0  0  0  0  0  0  0  0  0  0  0
   -1.1429    0.3190    0.2497 C   0  0  0  0  0  0  0  0  0  0  0  0
   -1.9361    1.5320   -0.2342 C   0  0  0  0  0  0  0  0  0  0  0  0
   -2.1025   -0.7690    0.7280 C   0  0  0  0  0  0  0  0  0  0  0  0
    3.3258    1.0431    0.8196 H   0  0  0  0  0  0  0  0  0  0  0  0
    1.6409    1.4539    0.5129 H   0  0  0  0  0  0  0  0  0  0  0  0
    2.0466    0.2429    1.7329 H   0  0  0  0  0  0  0  0  0  0  0  0
    3.0020   -1.2178   -0.0641 H   0  0  0  0  0  0  0  0  0  0  0  0
    2.5117   -0.0347   -1.2743 H   0  0  0  0  0  0  0  0  0  0  0  0
    0.9772   -1.9748   -1.0883 H   0  0  0  0  0  0  0  0  0  0  0  0
    0.6318   -1.5516    0.5824 H   0  0  0  0  0  0  0  0  0  0  0  0
    0.2119    0.6461   -1.3935 H   0  0  0  0  0  0  0  0  0  0  0  0
   -0.8641   -0.7259   -1.5972 H   0  0  0  0  0  0  0  0  0  0  0  0
   -0.5203    0.6277    1.0950 H   0  0  0  0  0  0  0  0  0  0  0  0
   -2.5950    1.8957    0.5509 H   0  0  0  0  0  0  0  0  0  0  0  0
   -1.2679    2.3407   -0.5222 H   0  0  0  0  0  0  0  0  0  0  0  0
   -2.5440    1.2661   -1.0966 H   0  0  0  0  0  0  0  0  0  0  0  0
   -2.7712   -1.0622   -0.0789 H   0  0  0  0  0  0  0  0  0  0  0  0
   -2.7049   -0.4070    1.5582 H   0  0  0  0  0  0  0  0  0  0  0  0
   -1.5609   -1.6514    1.0594 H   0  0  0  0  0  0  0  0  0  0  0  0
  1  2  1  0  0  0  0
  2  3  1  0  0  0  0
  3  4  1  0  0  0  0
  4  5  1  0  0  0  0
  5  6  1  0  0  0  0
  5  7  1  0  0  0  0
  1  8  1  0  0  0  0
  1  9  1  0  0  0  0
  1 10  1  0  0  0  0
  2 11  1  0  0  0  0
  2 12  1  0  0  0  0
  3 13  1  0  0  0  0
  3 14  1  0  0  0  0
  4 15  1  0  0  0  0
  4 16  1  0  0  0  0
  5 17  1  0  0  0  0
  6 18  1  0  0  0  0
  6 19  1  0  0  0  0
  6 20  1  0  0  0  0
  7 21  1  0  0  0  0
  7 22  1  0  0  0  0
  7 23  1  0  0  0  0
M  END
