 xtb: 6.7.1 (edcfbbe)
          04112514053D

 17 16  0     0  0            999 V2000
    2.3496   -1.2751    0.2679 C   0  0  0  0  0  0  0  0  0  0  0  0
    2.3757    0.0347   -0.5105 C   0  0  0  0  0  0  0  0  0  0  0  0
    1.3232    1.0203    0.0134 C   0  0  0  0  0  0  0  0  0  0  0  0
   -0.0524    0.5157   -0.2025 C   0  0  0  0  0  0  0  0  0  0  0  0
   -1.0091    0.4375    0.7328 C   0  0  0  0  0  0  0  0  0  0  0  0
   -2.3305   -0.0712    0.4288 C   0  0  0  0  0  0  0  0  0  0  0  0
   -2.7090   -0.4680   -0.6593 O   0  0  0  0  0  0  0  0  0  0  0  0
    2.5409   -1.0961    1.3234 H   0  0  0  0  0  0  0  0  0  0  0  0
    1.3780   -1.7559    0.1735 H   0  0  0  0  0  0  0  0  0  0  0  0
    3.1091   -1.9561   -0.1077 H   0  0  0  0  0  0  0  0  0  0  0  0
    2.1907   -0.1651   -1.5673 H   0  0  0  0  0  0  0  0  0  0  0  0
    3.3623    0.4914   -0.4213 H   0  0  0  0  0  0  0  0  0  0  0  0
    1.4260    1.9591   -0.5379 H   0  0  0  0  0  0  0  0  0  0  0  0
    1.4921    1.2222    1.0719 H   0  0  0  0  0  0  0  0  0  0  0  0
   -0.2955    0.1805   -1.2043 H   0  0  0  0  0  0  0  0  0  0  0  0
   -0.8297    0.7499    1.7502 H   0  0  0  0  0  0  0  0  0  0  0  0
   -3.0280   -0.0891    1.2862 H   0  0  0  0  0  0  0  0  0  0  0  0
  1  2  1  0  0  0  0
  2  3  1  0  0  0  0
  3  4  1  0  0  0  0
  4  5  2  0  0  0  0
  5  6  1  0  0  0  0
  6  7  2  0  0  0  0
  1  8  1  0  0  0  0
  1  9  1  0  0  0  0
  1 10  1  0  0  0  0
  2 11  1  0  0  0  0
  2 12  1  0  0  0  0
  3 13  1  0  0  0  0
  3 14  1  0  0  0  0
  4 15  1  0  0  0  0
  5 16  1  0  0  0  0
  6 17  1  0  0  0  0
M  END
