 xtb: 6.7.1 (edcfbbe)
          04112516293D

 20 19  0     0  0            999 V2000
   -2.2984   -1.2488   -0.3226 C   0  0  0  0  0  0  0  0  0  0  0  0
   -2.6510    0.2146   -0.0857 C   0  0  0  0  0  0  0  0  0  0  0  0
   -1.6360    0.9439    0.7958 C   0  0  0  0  0  0  0  0  0  0  0  0
   -0.2654    1.1060    0.1506 C   0  0  0  0  0  0  0  0  0  0  0  0
    0.4753   -0.1157    0.2892 O   0  0  0  0  0  0  0  0  0  0  0  0
    1.7426   -0.1182   -0.0975 C   0  0  0  0  0  0  0  0  0  0  0  0
    2.2926    0.8563   -0.5726 O   0  0  0  0  0  0  0  0  0  0  0  0
    2.3937   -1.4504    0.1246 C   0  0  0  0  0  0  0  0  0  0  0  0
   -1.3524   -1.3388   -0.8491 H   0  0  0  0  0  0  0  0  0  0  0  0
   -2.2123   -1.7759    0.6243 H   0  0  0  0  0  0  0  0  0  0  0  0
   -3.0704   -1.7307   -0.9177 H   0  0  0  0  0  0  0  0  0  0  0  0
   -2.7281    0.7310   -1.0449 H   0  0  0  0  0  0  0  0  0  0  0  0
   -3.6269    0.2708    0.4002 H   0  0  0  0  0  0  0  0  0  0  0  0
   -2.0143    1.9416    1.0197 H   0  0  0  0  0  0  0  0  0  0  0  0
   -1.5098    0.4053    1.7358 H   0  0  0  0  0  0  0  0  0  0  0  0
   -0.3463    1.3471   -0.9146 H   0  0  0  0  0  0  0  0  0  0  0  0
    0.3088    1.9040    0.6338 H   0  0  0  0  0  0  0  0  0  0  0  0
    3.2499   -1.3191    0.7811 H   0  0  0  0  0  0  0  0  0  0  0  0
    2.7592   -1.8295   -0.8263 H   0  0  0  0  0  0  0  0  0  0  0  0
    1.6823   -2.1421    0.5619 H   0  0  0  0  0  0  0  0  0  0  0  0
  1  2  1  0  0  0  0
  2  3  1  0  0  0  0
  3  4  1  0  0  0  0
  4  5  1  0  0  0  0
  5  6  1  0  0  0  0
  6  7  2  0  0  0  0
  6  8  1  0  0  0  0
  1  9  1  0  0  0  0
  1 10  1  0  0  0  0
  1 11  1  0  0  0  0
  2 12  1  0  0  0  0
  2 13  1  0  0  0  0
  3 14  1  0  0  0  0
  3 15  1  0  0  0  0
  4 16  1  0  0  0  0
  4 17  1  0  0  0  0
  8 18  1  0  0  0  0
  8 19  1  0  0  0  0
  8 20  1  0  0  0  0
M  END
