 xtb: 6.7.1 (edcfbbe)
          04112516203D

 17 16  0     0  0            999 V2000
   -2.5711   -1.0667    0.5126 C   0  0  0  0  0  0  0  0  0  0  0  0
   -2.7148    0.4283    0.2413 C   0  0  0  0  0  0  0  0  0  0  0  0
   -1.6769    0.9633   -0.7579 C   0  0  0  0  0  0  0  0  0  0  0  0
   -0.5288    1.7392   -0.1104 C   0  0  0  0  0  0  0  0  0  0  0  0
    0.3408    0.9165    0.8188 C   0  0  0  0  0  0  0  0  0  0  0  0
    1.2937   -0.5221   -0.1428 Br  0  0  0  0  0  0  0  0  0  0  0  0
   -1.5840   -1.3155    0.8935 H   0  0  0  0  0  0  0  0  0  0  0  0
   -2.7267   -1.6325   -0.4032 H   0  0  0  0  0  0  0  0  0  0  0  0
   -3.3084   -1.3912    1.2435 H   0  0  0  0  0  0  0  0  0  0  0  0
   -3.7166    0.6042   -0.1540 H   0  0  0  0  0  0  0  0  0  0  0  0
   -2.6395    0.9802    1.1808 H   0  0  0  0  0  0  0  0  0  0  0  0
   -1.2671    0.1322   -1.3358 H   0  0  0  0  0  0  0  0  0  0  0  0
   -2.1650    1.6368   -1.4639 H   0  0  0  0  0  0  0  0  0  0  0  0
    0.0954    2.1700   -0.8968 H   0  0  0  0  0  0  0  0  0  0  0  0
   -0.9371    2.5631    0.4808 H   0  0  0  0  0  0  0  0  0  0  0  0
   -0.2378    0.4173    1.5924 H   0  0  0  0  0  0  0  0  0  0  0  0
    1.1241    1.5212    1.2724 H   0  0  0  0  0  0  0  0  0  0  0  0
  1  2  1  0  0  0  0
  2  3  1  0  0  0  0
  3  4  1  0  0  0  0
  4  5  1  0  0  0  0
  5  6  1  0  0  0  0
  1  7  1  0  0  0  0
  1  8  1  0  0  0  0
  1  9  1  0  0  0  0
  2 10  1  0  0  0  0
  2 11  1  0  0  0  0
  3 12  1  0  0  0  0
  3 13  1  0  0  0  0
  4 14  1  0  0  0  0
  4 15  1  0  0  0  0
  5 16  1  0  0  0  0
  5 17  1  0  0  0  0
M  END
