 xtb: 6.7.1 (edcfbbe)
          04112516293D

 20 19  0     0  0            999 V2000
   -2.2705   -0.3766   -1.2005 C   0  0  0  0  0  0  0  0  0  0  0  0
   -1.9869   -0.5821    0.2837 C   0  0  0  0  0  0  0  0  0  0  0  0
   -1.5740    0.7021    1.0053 C   0  0  0  0  0  0  0  0  0  0  0  0
   -0.2470    1.2815    0.5206 C   0  0  0  0  0  0  0  0  0  0  0  0
    0.8304    0.3759    0.7997 O   0  0  0  0  0  0  0  0  0  0  0  0
    1.4558   -0.2228   -0.2054 C   0  0  0  0  0  0  0  0  0  0  0  0
    1.1980   -0.0277   -1.3764 O   0  0  0  0  0  0  0  0  0  0  0  0
    2.5195   -1.1575    0.2892 C   0  0  0  0  0  0  0  0  0  0  0  0
   -2.6798   -1.2865   -1.6326 H   0  0  0  0  0  0  0  0  0  0  0  0
   -2.9887    0.4270   -1.3447 H   0  0  0  0  0  0  0  0  0  0  0  0
   -1.3594   -0.1324   -1.7429 H   0  0  0  0  0  0  0  0  0  0  0  0
   -2.8850   -0.9690    0.7688 H   0  0  0  0  0  0  0  0  0  0  0  0
   -1.2008   -1.3322    0.4008 H   0  0  0  0  0  0  0  0  0  0  0  0
   -2.3392    1.4653    0.8607 H   0  0  0  0  0  0  0  0  0  0  0  0
   -1.4867    0.4969    2.0734 H   0  0  0  0  0  0  0  0  0  0  0  0
   -0.2659    1.4847   -0.5530 H   0  0  0  0  0  0  0  0  0  0  0  0
   -0.0138    2.1993    1.0648 H   0  0  0  0  0  0  0  0  0  0  0  0
    3.4720   -0.8766   -0.1523 H   0  0  0  0  0  0  0  0  0  0  0  0
    2.2840   -2.1658   -0.0426 H   0  0  0  0  0  0  0  0  0  0  0  0
    2.5732   -1.1184    1.3716 H   0  0  0  0  0  0  0  0  0  0  0  0
  1  2  1  0  0  0  0
  2  3  1  0  0  0  0
  3  4  1  0  0  0  0
  4  5  1  0  0  0  0
  5  6  1  0  0  0  0
  6  7  2  0  0  0  0
  6  8  1  0  0  0  0
  1  9  1  0  0  0  0
  1 10  1  0  0  0  0
  1 11  1  0  0  0  0
  2 12  1  0  0  0  0
  2 13  1  0  0  0  0
  3 14  1  0  0  0  0
  3 15  1  0  0  0  0
  4 16  1  0  0  0  0
  4 17  1  0  0  0  0
  8 18  1  0  0  0  0
  8 19  1  0  0  0  0
  8 20  1  0  0  0  0
M  END
