 xtb: 6.7.1 (edcfbbe)
          04112516213D

 19 18  0     0  0            999 V2000
    2.8290    0.7496    0.6322 C   0  0  0  0  0  0  0  0  0  0  0  0
    2.2670   -0.0952   -0.5059 C   0  0  0  0  0  0  0  0  0  0  0  0
    0.7649    0.1013   -0.7157 C   0  0  0  0  0  0  0  0  0  0  0  0
   -0.0620   -0.4188    0.4684 C   0  0  0  0  0  0  0  0  0  0  0  0
   -1.5375   -0.2821    0.2020 C   0  0  0  0  0  0  0  0  0  0  0  0
   -2.2603   -1.2528    0.0697 O   0  0  0  0  0  0  0  0  0  0  0  0
   -2.0639    1.1197    0.0894 C   0  0  0  0  0  0  0  0  0  0  0  0
    2.5932    1.8001    0.4793 H   0  0  0  0  0  0  0  0  0  0  0  0
    2.4226    0.4373    1.5904 H   0  0  0  0  0  0  0  0  0  0  0  0
    3.9101    0.6448    0.6768 H   0  0  0  0  0  0  0  0  0  0  0  0
    2.4715   -1.1500   -0.3122 H   0  0  0  0  0  0  0  0  0  0  0  0
    2.7779    0.1753   -1.4324 H   0  0  0  0  0  0  0  0  0  0  0  0
    0.4601   -0.4376   -1.6157 H   0  0  0  0  0  0  0  0  0  0  0  0
    0.5606    1.1611   -0.8715 H   0  0  0  0  0  0  0  0  0  0  0  0
    0.1692   -1.4713    0.6429 H   0  0  0  0  0  0  0  0  0  0  0  0
    0.1799    0.1547    1.3635 H   0  0  0  0  0  0  0  0  0  0  0  0
   -1.3836    1.8432    0.5236 H   0  0  0  0  0  0  0  0  0  0  0  0
   -2.2056    1.3467   -0.9661 H   0  0  0  0  0  0  0  0  0  0  0  0
   -3.0396    1.1801    0.5653 H   0  0  0  0  0  0  0  0  0  0  0  0
  1  2  1  0  0  0  0
  2  3  1  0  0  0  0
  3  4  1  0  0  0  0
  4  5  1  0  0  0  0
  5  6  2  0  0  0  0
  5  7  1  0  0  0  0
  1  8  1  0  0  0  0
  1  9  1  0  0  0  0
  1 10  1  0  0  0  0
  2 11  1  0  0  0  0
  2 12  1  0  0  0  0
  3 13  1  0  0  0  0
  3 14  1  0  0  0  0
  4 15  1  0  0  0  0
  4 16  1  0  0  0  0
  7 17  1  0  0  0  0
  7 18  1  0  0  0  0
  7 19  1  0  0  0  0
M  END
