 xtb: 6.7.1 (edcfbbe)
          04112516153D

 26 25  0     0  0            999 V2000
    1.2315    0.4691   -1.8025 C   0  0  0  0  0  0  0  0  0  0  0  0
    1.1769    0.0132   -0.3509 C   0  0  0  0  0  0  0  0  0  0  0  0
    0.6417   -1.4098   -0.2438 C   0  0  0  0  0  0  0  0  0  0  0  0
    0.5140    1.0503    0.4963 C   0  0  0  0  0  0  0  0  0  0  0  0
   -0.5233    1.1002    1.2130 N   0  0  0  0  0  0  0  0  0  0  0  0
   -1.4289    0.0107    1.2348 O   0  0  0  0  0  0  0  0  0  0  0  0
   -2.1993   -0.1643    0.1216 C   0  0  0  0  0  0  0  0  0  0  0  0
   -2.0131    0.4237   -0.9283 O   0  0  0  0  0  0  0  0  0  0  0  0
   -3.1468   -1.0665    0.3726 N   0  0  0  0  0  0  0  0  0  0  0  0
   -4.1202   -1.4824   -0.6128 C   0  0  0  0  0  0  0  0  0  0  0  0
    2.8822   -0.0806    0.4200 S   0  0  0  0  0  0  0  0  0  0  0  0
    3.7671    1.3638   -0.2386 C   0  0  0  0  0  0  0  0  0  0  0  0
    1.8381   -0.2186   -2.3863 H   0  0  0  0  0  0  0  0  0  0  0  0
    0.2150    0.4709   -2.1954 H   0  0  0  0  0  0  0  0  0  0  0  0
    1.6296    1.4759   -1.8934 H   0  0  0  0  0  0  0  0  0  0  0  0
    1.3537   -2.0911   -0.7046 H   0  0  0  0  0  0  0  0  0  0  0  0
   -0.3080   -1.5019   -0.7651 H   0  0  0  0  0  0  0  0  0  0  0  0
    0.5137   -1.6982    0.7979 H   0  0  0  0  0  0  0  0  0  0  0  0
    1.0637    1.9832    0.5691 H   0  0  0  0  0  0  0  0  0  0  0  0
   -3.1898   -1.4615    1.2998 H   0  0  0  0  0  0  0  0  0  0  0  0
   -5.1267   -1.2550   -0.2650 H   0  0  0  0  0  0  0  0  0  0  0  0
   -4.0303   -2.5518   -0.7993 H   0  0  0  0  0  0  0  0  0  0  0  0
   -3.9225   -0.9342   -1.5317 H   0  0  0  0  0  0  0  0  0  0  0  0
    3.9348    1.2415   -1.3029 H   0  0  0  0  0  0  0  0  0  0  0  0
    4.7152    1.3727    0.2889 H   0  0  0  0  0  0  0  0  0  0  0  0
    3.2191    2.2752   -0.0229 H   0  0  0  0  0  0  0  0  0  0  0  0
  1  2  1  0  0  0  0
  2  3  1  0  0  0  0
  2  4  1  0  0  0  0
  4  5  2  0  0  0  0
  5  6  1  0  0  0  0
  6  7  1  0  0  0  0
  7  8  2  0  0  0  0
  7  9  4  0  0  0  0
  9 10  1  0  0  0  0
  2 11  1  0  0  0  0
 11 12  1  0  0  0  0
  1 13  1  0  0  0  0
  1 14  1  0  0  0  0
  1 15  1  0  0  0  0
  3 16  1  0  0  0  0
  3 17  1  0  0  0  0
  3 18  1  0  0  0  0
  4 19  1  0  0  0  0
  9 20  1  0  0  0  0
 10 21  1  0  0  0  0
 10 22  1  0  0  0  0
 10 23  1  0  0  0  0
 12 24  1  0  0  0  0
 12 25  1  0  0  0  0
 12 26  1  0  0  0  0
M  END
