 xtb: 6.7.1 (edcfbbe)
          04112516013D

 20 19  0     0  0            999 V2000
   -3.0955   -0.6245   -0.6504 C   0  0  0  0  0  0  0  0  0  0  0  0
   -2.3569   -0.4155    0.6667 C   0  0  0  0  0  0  0  0  0  0  0  0
   -1.5529    0.8857    0.7065 C   0  0  0  0  0  0  0  0  0  0  0  0
   -0.3456    0.8716   -0.2214 C   0  0  0  0  0  0  0  0  0  0  0  0
    0.5484   -0.1692    0.1997 O   0  0  0  0  0  0  0  0  0  0  0  0
    1.8215   -0.0903   -0.1624 C   0  0  0  0  0  0  0  0  0  0  0  0
    2.2671    0.8128   -0.8418 O   0  0  0  0  0  0  0  0  0  0  0  0
    2.6206   -1.2377    0.3787 C   0  0  0  0  0  0  0  0  0  0  0  0
   -3.7062   -1.5222   -0.5978 H   0  0  0  0  0  0  0  0  0  0  0  0
   -3.7455    0.2215   -0.8616 H   0  0  0  0  0  0  0  0  0  0  0  0
   -2.4000   -0.7399   -1.4776 H   0  0  0  0  0  0  0  0  0  0  0  0
   -3.0845   -0.3922    1.4798 H   0  0  0  0  0  0  0  0  0  0  0  0
   -1.6806   -1.2526    0.8456 H   0  0  0  0  0  0  0  0  0  0  0  0
   -2.1877    1.7240    0.4179 H   0  0  0  0  0  0  0  0  0  0  0  0
   -1.1993    1.0557    1.7244 H   0  0  0  0  0  0  0  0  0  0  0  0
   -0.6347    0.6758   -1.2579 H   0  0  0  0  0  0  0  0  0  0  0  0
    0.1914    1.8256   -0.1919 H   0  0  0  0  0  0  0  0  0  0  0  0
    3.6114   -1.2328   -0.0631 H   0  0  0  0  0  0  0  0  0  0  0  0
    2.1072   -2.1704    0.1654 H   0  0  0  0  0  0  0  0  0  0  0  0
    2.6980   -1.1322    1.4581 H   0  0  0  0  0  0  0  0  0  0  0  0
  1  2  1  0  0  0  0
  2  3  1  0  0  0  0
  3  4  1  0  0  0  0
  4  5  1  0  0  0  0
  5  6  1  0  0  0  0
  6  7  2  0  0  0  0
  6  8  1  0  0  0  0
  1  9  1  0  0  0  0
  1 10  1  0  0  0  0
  1 11  1  0  0  0  0
  2 12  1  0  0  0  0
  2 13  1  0  0  0  0
  3 14  1  0  0  0  0
  3 15  1  0  0  0  0
  4 16  1  0  0  0  0
  4 17  1  0  0  0  0
  8 18  1  0  0  0  0
  8 19  1  0  0  0  0
  8 20  1  0  0  0  0
M  END
