 xtb: 6.7.1 (edcfbbe)
          04112516113D

 17 16  0     0  0            999 V2000
   -2.9770   -0.1891    0.6769 C   0  0  0  0  0  0  0  0  0  0  0  0
   -1.6500   -0.3674   -0.0515 C   0  0  0  0  0  0  0  0  0  0  0  0
   -0.8794    0.9487   -0.1423 C   0  0  0  0  0  0  0  0  0  0  0  0
    0.4501    0.7841   -0.8937 C   0  0  0  0  0  0  0  0  0  0  0  0
    1.3728   -0.1662   -0.1715 C   0  0  0  0  0  0  0  0  0  0  0  0
    1.6628   -1.2664   -0.5850 O   0  0  0  0  0  0  0  0  0  0  0  0
    1.8702    0.2557    0.9892 O   0  0  0  0  0  0  0  0  0  0  0  0
   -3.5135   -1.1329    0.7245 H   0  0  0  0  0  0  0  0  0  0  0  0
   -2.8120    0.1625    1.6927 H   0  0  0  0  0  0  0  0  0  0  0  0
   -3.6006    0.5353    0.1583 H   0  0  0  0  0  0  0  0  0  0  0  0
   -1.8339   -0.7489   -1.0579 H   0  0  0  0  0  0  0  0  0  0  0  0
   -1.0417   -1.1114    0.4697 H   0  0  0  0  0  0  0  0  0  0  0  0
   -1.4860    1.6841   -0.6726 H   0  0  0  0  0  0  0  0  0  0  0  0
   -0.7033    1.3263    0.8665 H   0  0  0  0  0  0  0  0  0  0  0  0
    0.9415    1.7529   -0.9954 H   0  0  0  0  0  0  0  0  0  0  0  0
    0.2635    0.3762   -1.8872 H   0  0  0  0  0  0  0  0  0  0  0  0
    1.6001    1.1627    1.2218 H   0  0  0  0  0  0  0  0  0  0  0  0
  1  2  1  0  0  0  0
  2  3  1  0  0  0  0
  3  4  1  0  0  0  0
  4  5  1  0  0  0  0
  5  6  2  0  0  0  0
  5  7  1  0  0  0  0
  1  8  1  0  0  0  0
  1  9  1  0  0  0  0
  1 10  1  0  0  0  0
  2 11  1  0  0  0  0
  2 12  1  0  0  0  0
  3 13  1  0  0  0  0
  3 14  1  0  0  0  0
  4 15  1  0  0  0  0
  4 16  1  0  0  0  0
  7 17  1  0  0  0  0
M  END
