 xtb: 6.7.1 (edcfbbe)
          04112516153D

 26 25  0     0  0            999 V2000
    1.6261   -0.4820   -1.7019 C   0  0  0  0  0  0  0  0  0  0  0  0
    1.8352   -0.5932   -0.1936 C   0  0  0  0  0  0  0  0  0  0  0  0
    3.1670   -1.2531    0.1392 C   0  0  0  0  0  0  0  0  0  0  0  0
    0.7153   -1.3428    0.4615 C   0  0  0  0  0  0  0  0  0  0  0  0
   -0.5306   -1.1418    0.4349 N   0  0  0  0  0  0  0  0  0  0  0  0
   -0.9856   -0.0511   -0.3328 O   0  0  0  0  0  0  0  0  0  0  0  0
   -2.3333    0.1915   -0.2588 C   0  0  0  0  0  0  0  0  0  0  0  0
   -2.7634    1.1026   -0.9427 O   0  0  0  0  0  0  0  0  0  0  0  0
   -3.0292   -0.5946    0.5511 N   0  0  0  0  0  0  0  0  0  0  0  0
   -4.4549   -0.4644    0.7447 C   0  0  0  0  0  0  0  0  0  0  0  0
    1.7347    1.1005    0.6066 S   0  0  0  0  0  0  0  0  0  0  0  0
    3.1623    1.9642   -0.1121 C   0  0  0  0  0  0  0  0  0  0  0  0
    1.5136   -1.4777   -2.1269 H   0  0  0  0  0  0  0  0  0  0  0  0
    0.7330    0.0965   -1.9271 H   0  0  0  0  0  0  0  0  0  0  0  0
    2.4841   -0.0045   -2.1675 H   0  0  0  0  0  0  0  0  0  0  0  0
    3.9838   -0.7436   -0.3642 H   0  0  0  0  0  0  0  0  0  0  0  0
    3.1538   -2.2874   -0.1974 H   0  0  0  0  0  0  0  0  0  0  0  0
    3.3447   -1.2299    1.2116 H   0  0  0  0  0  0  0  0  0  0  0  0
    0.9809   -2.1896    1.0809 H   0  0  0  0  0  0  0  0  0  0  0  0
   -2.5243   -1.3152    1.0517 H   0  0  0  0  0  0  0  0  0  0  0  0
   -4.6707   -0.2513    1.7905 H   0  0  0  0  0  0  0  0  0  0  0  0
   -4.9569   -1.3837    0.4473 H   0  0  0  0  0  0  0  0  0  0  0  0
   -4.8054    0.3590    0.1257 H   0  0  0  0  0  0  0  0  0  0  0  0
    3.0705    1.9981   -1.1924 H   0  0  0  0  0  0  0  0  0  0  0  0
    4.0846    1.4871    0.2000 H   0  0  0  0  0  0  0  0  0  0  0  0
    3.1098    2.9694    0.2929 H   0  0  0  0  0  0  0  0  0  0  0  0
  1  2  1  0  0  0  0
  2  3  1  0  0  0  0
  2  4  1  0  0  0  0
  4  5  2  0  0  0  0
  5  6  1  0  0  0  0
  6  7  1  0  0  0  0
  7  8  2  0  0  0  0
  7  9  4  0  0  0  0
  9 10  1  0  0  0  0
  2 11  1  0  0  0  0
 11 12  1  0  0  0  0
  1 13  1  0  0  0  0
  1 14  1  0  0  0  0
  1 15  1  0  0  0  0
  3 16  1  0  0  0  0
  3 17  1  0  0  0  0
  3 18  1  0  0  0  0
  4 19  1  0  0  0  0
  9 20  1  0  0  0  0
 10 21  1  0  0  0  0
 10 22  1  0  0  0  0
 10 23  1  0  0  0  0
 12 24  1  0  0  0  0
 12 25  1  0  0  0  0
 12 26  1  0  0  0  0
M  END
