 xtb: 6.7.1 (edcfbbe)
          04112516423D

 26 25  0     0  0            999 V2000
    1.6012   -0.4845   -1.7133 C   0  0  0  0  0  0  0  0  0  0  0  0
    1.8269   -0.5788   -0.2064 C   0  0  0  0  0  0  0  0  0  0  0  0
    3.1607   -1.2386    0.1177 C   0  0  0  0  0  0  0  0  0  0  0  0
    0.7147   -1.3152    0.4761 C   0  0  0  0  0  0  0  0  0  0  0  0
   -0.5319   -1.1174    0.4604 N   0  0  0  0  0  0  0  0  0  0  0  0
   -0.9992   -0.0432   -0.3232 O   0  0  0  0  0  0  0  0  0  0  0  0
   -2.3502    0.1829   -0.2560 C   0  0  0  0  0  0  0  0  0  0  0  0
   -2.7891    1.0816   -0.9506 O   0  0  0  0  0  0  0  0  0  0  0  0
   -3.0398   -0.6053    0.5572 N   0  0  0  0  0  0  0  0  0  0  0  0
   -4.4682   -0.4916    0.7416 C   0  0  0  0  0  0  0  0  0  0  0  0
    1.7364    1.1287    0.5661 S   0  0  0  0  0  0  0  0  0  0  0  0
    3.2600    1.9145   -0.0382 C   0  0  0  0  0  0  0  0  0  0  0  0
    1.5164   -1.4854   -2.1322 H   0  0  0  0  0  0  0  0  0  0  0  0
    0.6901    0.0666   -1.9342 H   0  0  0  0  0  0  0  0  0  0  0  0
    2.4393    0.0182   -2.1891 H   0  0  0  0  0  0  0  0  0  0  0  0
    3.9717   -0.7446   -0.4096 H   0  0  0  0  0  0  0  0  0  0  0  0
    3.1350   -2.2792   -0.1982 H   0  0  0  0  0  0  0  0  0  0  0  0
    3.3562   -1.1971    1.1866 H   0  0  0  0  0  0  0  0  0  0  0  0
    0.9890   -2.1474    1.1115 H   0  0  0  0  0  0  0  0  0  0  0  0
   -2.5276   -1.3120    1.0700 H   0  0  0  0  0  0  0  0  0  0  0  0
   -4.8272    0.3147    0.1050 H   0  0  0  0  0  0  0  0  0  0  0  0
   -4.6930   -0.2613    1.7819 H   0  0  0  0  0  0  0  0  0  0  0  0
   -4.9553   -1.4237    0.4596 H   0  0  0  0  0  0  0  0  0  0  0  0
    3.2952    1.8723   -1.1214 H   0  0  0  0  0  0  0  0  0  0  0  0
    4.1274    1.4447    0.4119 H   0  0  0  0  0  0  0  0  0  0  0  0
    3.1872    2.9472    0.2867 H   0  0  0  0  0  0  0  0  0  0  0  0
  1  2  1  0  0  0  0
  2  3  1  0  0  0  0
  2  4  1  0  0  0  0
  4  5  2  0  0  0  0
  5  6  1  0  0  0  0
  6  7  1  0  0  0  0
  7  8  2  0  0  0  0
  7  9  4  0  0  0  0
  9 10  1  0  0  0  0
  2 11  1  0  0  0  0
 11 12  1  0  0  0  0
  1 13  1  0  0  0  0
  1 14  1  0  0  0  0
  1 15  1  0  0  0  0
  3 16  1  0  0  0  0
  3 17  1  0  0  0  0
  3 18  1  0  0  0  0
  4 19  1  0  0  0  0
  9 20  1  0  0  0  0
 10 21  1  0  0  0  0
 10 22  1  0  0  0  0
 10 23  1  0  0  0  0
 12 24  1  0  0  0  0
 12 25  1  0  0  0  0
 12 26  1  0  0  0  0
M  END
