 xtb: 6.7.1 (edcfbbe)
          04112516013D

 20 19  0     0  0            999 V2000
   -3.2205   -0.7891   -0.5132 C   0  0  0  0  0  0  0  0  0  0  0  0
   -1.7971   -0.2453   -0.5219 C   0  0  0  0  0  0  0  0  0  0  0  0
   -1.5303    0.6484    0.6880 C   0  0  0  0  0  0  0  0  0  0  0  0
   -0.1268    1.2468    0.6753 C   0  0  0  0  0  0  0  0  0  0  0  0
    0.8619    0.2257    0.8703 O   0  0  0  0  0  0  0  0  0  0  0  0
    1.6248   -0.1464   -0.1513 C   0  0  0  0  0  0  0  0  0  0  0  0
    1.5656    0.3510   -1.2569 O   0  0  0  0  0  0  0  0  0  0  0  0
    2.5645   -1.2459    0.2463 C   0  0  0  0  0  0  0  0  0  0  0  0
   -3.3891   -1.4248   -1.3783 H   0  0  0  0  0  0  0  0  0  0  0  0
   -3.3981   -1.3749    0.3854 H   0  0  0  0  0  0  0  0  0  0  0  0
   -3.9381    0.0271   -0.5398 H   0  0  0  0  0  0  0  0  0  0  0  0
   -1.0898   -1.0787   -0.5225 H   0  0  0  0  0  0  0  0  0  0  0  0
   -1.6260    0.3260   -1.4375 H   0  0  0  0  0  0  0  0  0  0  0  0
   -2.2444    1.4724    0.6976 H   0  0  0  0  0  0  0  0  0  0  0  0
   -1.6568    0.0707    1.6050 H   0  0  0  0  0  0  0  0  0  0  0  0
    0.0748    1.7522   -0.2743 H   0  0  0  0  0  0  0  0  0  0  0  0
    0.0036    1.9439    1.5055 H   0  0  0  0  0  0  0  0  0  0  0  0
    3.2277   -1.4757   -0.5808 H   0  0  0  0  0  0  0  0  0  0  0  0
    1.9868   -2.1257    0.5175 H   0  0  0  0  0  0  0  0  0  0  0  0
    3.1333   -0.9347    1.1177 H   0  0  0  0  0  0  0  0  0  0  0  0
  1  2  1  0  0  0  0
  2  3  1  0  0  0  0
  3  4  1  0  0  0  0
  4  5  1  0  0  0  0
  5  6  1  0  0  0  0
  6  7  2  0  0  0  0
  6  8  1  0  0  0  0
  1  9  1  0  0  0  0
  1 10  1  0  0  0  0
  1 11  1  0  0  0  0
  2 12  1  0  0  0  0
  2 13  1  0  0  0  0
  3 14  1  0  0  0  0
  3 15  1  0  0  0  0
  4 16  1  0  0  0  0
  4 17  1  0  0  0  0
  8 18  1  0  0  0  0
  8 19  1  0  0  0  0
  8 20  1  0  0  0  0
M  END
