 xtb: 6.7.1 (edcfbbe)
          04112518233D

 26 25  0     0  0            999 V2000
    3.0159   -1.3384   -1.0143 C   0  0  0  0  0  0  0  0  0  0  0  0
    1.8233   -0.6330   -0.3725 C   0  0  0  0  0  0  0  0  0  0  0  0
    1.2658   -1.4478    0.7799 C   0  0  0  0  0  0  0  0  0  0  0  0
    0.8745   -0.1757   -1.4256 C   0  0  0  0  0  0  0  0  0  0  0  0
   -0.3836   -0.1412   -1.5294 N   0  0  0  0  0  0  0  0  0  0  0  0
   -1.1650   -0.7869   -0.5271 O   0  0  0  0  0  0  0  0  0  0  0  0
   -2.1141    0.0055    0.0518 C   0  0  0  0  0  0  0  0  0  0  0  0
   -2.0730    1.2219    0.0305 O   0  0  0  0  0  0  0  0  0  0  0  0
   -3.0156   -0.7498    0.6778 N   0  0  0  0  0  0  0  0  0  0  0  0
   -4.1021   -0.1964    1.4553 C   0  0  0  0  0  0  0  0  0  0  0  0
    2.4883    1.0125    0.2325 S   0  0  0  0  0  0  0  0  0  0  0  0
    1.0856    1.7718    1.0921 C   0  0  0  0  0  0  0  0  0  0  0  0
    3.4591   -0.7169   -1.7878 H   0  0  0  0  0  0  0  0  0  0  0  0
    3.7713   -1.5386   -0.2595 H   0  0  0  0  0  0  0  0  0  0  0  0
    2.6921   -2.2787   -1.4539 H   0  0  0  0  0  0  0  0  0  0  0  0
    0.4806   -0.9159    1.3106 H   0  0  0  0  0  0  0  0  0  0  0  0
    2.0673   -1.6736    1.4796 H   0  0  0  0  0  0  0  0  0  0  0  0
    0.8518   -2.3795    0.4000 H   0  0  0  0  0  0  0  0  0  0  0  0
    1.3493    0.2969   -2.2781 H   0  0  0  0  0  0  0  0  0  0  0  0
   -2.9367   -1.7522    0.5974 H   0  0  0  0  0  0  0  0  0  0  0  0
   -4.0322   -0.5310    2.4894 H   0  0  0  0  0  0  0  0  0  0  0  0
   -5.0580   -0.5047    1.0348 H   0  0  0  0  0  0  0  0  0  0  0  0
   -4.0226    0.8880    1.4168 H   0  0  0  0  0  0  0  0  0  0  0  0
    1.3642    2.8098    1.2414 H   0  0  0  0  0  0  0  0  0  0  0  0
    0.9326    1.2888    2.0527 H   0  0  0  0  0  0  0  0  0  0  0  0
    0.1876    1.7244    0.4808 H   0  0  0  0  0  0  0  0  0  0  0  0
  1  2  1  0  0  0  0
  2  3  1  0  0  0  0
  2  4  1  0  0  0  0
  4  5  2  0  0  0  0
  5  6  1  0  0  0  0
  6  7  1  0  0  0  0
  7  8  2  0  0  0  0
  7  9  4  0  0  0  0
  9 10  1  0  0  0  0
  2 11  1  0  0  0  0
 11 12  1  0  0  0  0
  1 13  1  0  0  0  0
  1 14  1  0  0  0  0
  1 15  1  0  0  0  0
  3 16  1  0  0  0  0
  3 17  1  0  0  0  0
  3 18  1  0  0  0  0
  4 19  1  0  0  0  0
  9 20  1  0  0  0  0
 10 21  1  0  0  0  0
 10 22  1  0  0  0  0
 10 23  1  0  0  0  0
 12 24  1  0  0  0  0
 12 25  1  0  0  0  0
 12 26  1  0  0  0  0
M  END
