 xtb: 6.7.1 (edcfbbe)
          04112516353D

 19 18  0     0  0            999 V2000
    2.9544    0.2712   -0.6674 C   0  0  0  0  0  0  0  0  0  0  0  0
    1.6421   -0.3199   -0.1659 C   0  0  0  0  0  0  0  0  0  0  0  0
    0.8630    0.6805    0.6859 C   0  0  0  0  0  0  0  0  0  0  0  0
   -0.4658    0.0968    1.1778 C   0  0  0  0  0  0  0  0  0  0  0  0
   -1.4134   -0.2453    0.0549 C   0  0  0  0  0  0  0  0  0  0  0  0
   -1.8629   -1.3677   -0.0838 O   0  0  0  0  0  0  0  0  0  0  0  0
   -1.7750    0.8777   -0.8726 C   0  0  0  0  0  0  0  0  0  0  0  0
    3.5827    0.5649    0.1701 H   0  0  0  0  0  0  0  0  0  0  0  0
    3.4967   -0.4567   -1.2653 H   0  0  0  0  0  0  0  0  0  0  0  0
    2.7683    1.1496   -1.2811 H   0  0  0  0  0  0  0  0  0  0  0  0
    1.8480   -1.2139    0.4270 H   0  0  0  0  0  0  0  0  0  0  0  0
    1.0311   -0.6322   -1.0168 H   0  0  0  0  0  0  0  0  0  0  0  0
    0.6814    1.5885    0.1106 H   0  0  0  0  0  0  0  0  0  0  0  0
    1.4646    0.9519    1.5552 H   0  0  0  0  0  0  0  0  0  0  0  0
   -0.2820   -0.8082    1.7603 H   0  0  0  0  0  0  0  0  0  0  0  0
   -0.9638    0.8268    1.8188 H   0  0  0  0  0  0  0  0  0  0  0  0
   -1.9035    1.8064   -0.3263 H   0  0  0  0  0  0  0  0  0  0  0  0
   -0.9664    1.0096   -1.5891 H   0  0  0  0  0  0  0  0  0  0  0  0
   -2.6791    0.6281   -1.4213 H   0  0  0  0  0  0  0  0  0  0  0  0
  1  2  1  0  0  0  0
  2  3  1  0  0  0  0
  3  4  1  0  0  0  0
  4  5  1  0  0  0  0
  5  6  2  0  0  0  0
  5  7  1  0  0  0  0
  1  8  1  0  0  0  0
  1  9  1  0  0  0  0
  1 10  1  0  0  0  0
  2 11  1  0  0  0  0
  2 12  1  0  0  0  0
  3 13  1  0  0  0  0
  3 14  1  0  0  0  0
  4 15  1  0  0  0  0
  4 16  1  0  0  0  0
  7 17  1  0  0  0  0
  7 18  1  0  0  0  0
  7 19  1  0  0  0  0
M  END
