 xtb: 6.7.1 (edcfbbe)
          04112514133D

 23 22  0     0  0            999 V2000
    2.9085   -0.5861    0.3976 C   0  0  0  0  0  0  0  0  0  0  0  0
    1.7795   -0.5353   -0.6260 C   0  0  0  0  0  0  0  0  0  0  0  0
    0.8357    0.6495   -0.4023 C   0  0  0  0  0  0  0  0  0  0  0  0
   -0.1019    0.4772    0.8019 C   0  0  0  0  0  0  0  0  0  0  0  0
   -1.5481    0.0798    0.4649 C   0  0  0  0  0  0  0  0  0  0  0  0
   -2.2855    1.1923   -0.2791 C   0  0  0  0  0  0  0  0  0  0  0  0
   -1.6252   -1.2300   -0.3160 C   0  0  0  0  0  0  0  0  0  0  0  0
    3.5554   -1.4393    0.2070 H   0  0  0  0  0  0  0  0  0  0  0  0
    3.5095    0.3193    0.3444 H   0  0  0  0  0  0  0  0  0  0  0  0
    2.5171   -0.6749    1.4080 H   0  0  0  0  0  0  0  0  0  0  0  0
    1.2151   -1.4678   -0.5901 H   0  0  0  0  0  0  0  0  0  0  0  0
    2.2174   -0.4520   -1.6238 H   0  0  0  0  0  0  0  0  0  0  0  0
    1.4442    1.5455   -0.2626 H   0  0  0  0  0  0  0  0  0  0  0  0
    0.2460    0.8049   -1.3060 H   0  0  0  0  0  0  0  0  0  0  0  0
    0.3105   -0.2801    1.4710 H   0  0  0  0  0  0  0  0  0  0  0  0
   -0.1421    1.4126    1.3645 H   0  0  0  0  0  0  0  0  0  0  0  0
   -2.0608   -0.0712    1.4233 H   0  0  0  0  0  0  0  0  0  0  0  0
   -2.2419    2.1219    0.2838 H   0  0  0  0  0  0  0  0  0  0  0  0
   -1.8502    1.3650   -1.2601 H   0  0  0  0  0  0  0  0  0  0  0  0
   -3.3302    0.9229   -0.4171 H   0  0  0  0  0  0  0  0  0  0  0  0
   -1.1242   -2.0285    0.2265 H   0  0  0  0  0  0  0  0  0  0  0  0
   -1.1606   -1.1272   -1.2932 H   0  0  0  0  0  0  0  0  0  0  0  0
   -2.6640   -1.5176   -0.4631 H   0  0  0  0  0  0  0  0  0  0  0  0
  1  2  1  0  0  0  0
  2  3  1  0  0  0  0
  3  4  1  0  0  0  0
  4  5  1  0  0  0  0
  5  6  1  0  0  0  0
  5  7  1  0  0  0  0
  1  8  1  0  0  0  0
  1  9  1  0  0  0  0
  1 10  1  0  0  0  0
  2 11  1  0  0  0  0
  2 12  1  0  0  0  0
  3 13  1  0  0  0  0
  3 14  1  0  0  0  0
  4 15  1  0  0  0  0
  4 16  1  0  0  0  0
  5 17  1  0  0  0  0
  6 18  1  0  0  0  0
  6 19  1  0  0  0  0
  6 20  1  0  0  0  0
  7 21  1  0  0  0  0
  7 22  1  0  0  0  0
  7 23  1  0  0  0  0
M  END
