 xtb: 6.7.1 (edcfbbe)
          04112516153D

 26 25  0     0  0            999 V2000
    3.1800   -0.6195   -1.2545 C   0  0  0  0  0  0  0  0  0  0  0  0
    1.9059   -0.5574   -0.4224 C   0  0  0  0  0  0  0  0  0  0  0  0
    1.7926   -1.7866    0.4803 C   0  0  0  0  0  0  0  0  0  0  0  0
    0.7039   -0.3913   -1.2909 C   0  0  0  0  0  0  0  0  0  0  0  0
   -0.5228   -0.3043   -0.9984 N   0  0  0  0  0  0  0  0  0  0  0  0
   -0.8636   -0.3858    0.3672 O   0  0  0  0  0  0  0  0  0  0  0  0
   -2.1985   -0.2366    0.6423 C   0  0  0  0  0  0  0  0  0  0  0  0
   -2.5305   -0.3271    1.8100 O   0  0  0  0  0  0  0  0  0  0  0  0
   -2.9913   -0.0065   -0.3962 N   0  0  0  0  0  0  0  0  0  0  0  0
   -4.4209    0.1631   -0.2742 C   0  0  0  0  0  0  0  0  0  0  0  0
    1.9708    0.9085    0.7379 S   0  0  0  0  0  0  0  0  0  0  0  0
    1.9305    2.3186   -0.4132 C   0  0  0  0  0  0  0  0  0  0  0  0
    3.2538    0.2291   -1.9294 H   0  0  0  0  0  0  0  0  0  0  0  0
    4.0464   -0.6199   -0.5983 H   0  0  0  0  0  0  0  0  0  0  0  0
    3.1870   -1.5337   -1.8438 H   0  0  0  0  0  0  0  0  0  0  0  0
    1.7195   -2.6857   -0.1277 H   0  0  0  0  0  0  0  0  0  0  0  0
    0.9156   -1.7179    1.1195 H   0  0  0  0  0  0  0  0  0  0  0  0
    2.6741   -1.8536    1.1126 H   0  0  0  0  0  0  0  0  0  0  0  0
    0.8733   -0.3009   -2.3572 H   0  0  0  0  0  0  0  0  0  0  0  0
   -2.5647    0.0272   -1.3136 H   0  0  0  0  0  0  0  0  0  0  0  0
   -4.7124    1.1439   -0.6466 H   0  0  0  0  0  0  0  0  0  0  0  0
   -4.6815    0.0814    0.7791 H   0  0  0  0  0  0  0  0  0  0  0  0
   -4.9382   -0.6113   -0.8387 H   0  0  0  0  0  0  0  0  0  0  0  0
    2.7943    2.2916   -1.0682 H   0  0  0  0  0  0  0  0  0  0  0  0
    1.9727    3.2004    0.2174 H   0  0  0  0  0  0  0  0  0  0  0  0
    1.0028    2.3096   -0.9767 H   0  0  0  0  0  0  0  0  0  0  0  0
  1  2  1  0  0  0  0
  2  3  1  0  0  0  0
  2  4  1  0  0  0  0
  4  5  2  0  0  0  0
  5  6  1  0  0  0  0
  6  7  1  0  0  0  0
  7  8  2  0  0  0  0
  7  9  4  0  0  0  0
  9 10  1  0  0  0  0
  2 11  1  0  0  0  0
 11 12  1  0  0  0  0
  1 13  1  0  0  0  0
  1 14  1  0  0  0  0
  1 15  1  0  0  0  0
  3 16  1  0  0  0  0
  3 17  1  0  0  0  0
  3 18  1  0  0  0  0
  4 19  1  0  0  0  0
  9 20  1  0  0  0  0
 10 21  1  0  0  0  0
 10 22  1  0  0  0  0
 10 23  1  0  0  0  0
 12 24  1  0  0  0  0
 12 25  1  0  0  0  0
 12 26  1  0  0  0  0
M  END
