 xtb: 6.7.1 (edcfbbe)
          04112514233D

 23 22  0     0  0            999 V2000
    3.2318    0.8213   -1.0288 C   0  0  0  0  0  0  0  0  0  0  0  0
    2.3819   -0.0740   -0.1283 C   0  0  0  0  0  0  0  0  0  0  0  0
    2.6217    0.2786    1.3380 C   0  0  0  0  0  0  0  0  0  0  0  0
    0.9056    0.0718   -0.5117 C   0  0  0  0  0  0  0  0  0  0  0  0
   -0.0061   -0.9063    0.2250 C   0  0  0  0  0  0  0  0  0  0  0  0
   -1.3210   -0.9051   -0.3485 O   0  0  0  0  0  0  0  0  0  0  0  0
   -2.1988   -0.0039    0.0820 C   0  0  0  0  0  0  0  0  0  0  0  0
   -1.9537    0.8096    0.9484 O   0  0  0  0  0  0  0  0  0  0  0  0
   -3.5142   -0.1416   -0.6236 C   0  0  0  0  0  0  0  0  0  0  0  0
    4.2859    0.7096   -0.7888 H   0  0  0  0  0  0  0  0  0  0  0  0
    2.9567    1.8644   -0.8905 H   0  0  0  0  0  0  0  0  0  0  0  0
    3.0883    0.5633   -2.0751 H   0  0  0  0  0  0  0  0  0  0  0  0
    2.6795   -1.1154   -0.2917 H   0  0  0  0  0  0  0  0  0  0  0  0
    2.1190   -0.4226    1.9982 H   0  0  0  0  0  0  0  0  0  0  0  0
    2.2520    1.2791    1.5512 H   0  0  0  0  0  0  0  0  0  0  0  0
    3.6855    0.2510    1.5604 H   0  0  0  0  0  0  0  0  0  0  0  0
    0.7933   -0.1084   -1.5833 H   0  0  0  0  0  0  0  0  0  0  0  0
    0.5700    1.0906   -0.3031 H   0  0  0  0  0  0  0  0  0  0  0  0
    0.3472   -1.9323    0.1123 H   0  0  0  0  0  0  0  0  0  0  0  0
   -0.0888   -0.6454    1.2835 H   0  0  0  0  0  0  0  0  0  0  0  0
   -4.1629    0.6843   -0.3515 H   0  0  0  0  0  0  0  0  0  0  0  0
   -3.9722   -1.0833   -0.3314 H   0  0  0  0  0  0  0  0  0  0  0  0
   -3.3485   -0.1651   -1.6965 H   0  0  0  0  0  0  0  0  0  0  0  0
  1  2  1  0  0  0  0
  2  3  1  0  0  0  0
  2  4  1  0  0  0  0
  4  5  1  0  0  0  0
  5  6  1  0  0  0  0
  6  7  1  0  0  0  0
  7  8  2  0  0  0  0
  7  9  1  0  0  0  0
  1 10  1  0  0  0  0
  1 11  1  0  0  0  0
  1 12  1  0  0  0  0
  2 13  1  0  0  0  0
  3 14  1  0  0  0  0
  3 15  1  0  0  0  0
  3 16  1  0  0  0  0
  4 17  1  0  0  0  0
  4 18  1  0  0  0  0
  5 19  1  0  0  0  0
  5 20  1  0  0  0  0
  9 21  1  0  0  0  0
  9 22  1  0  0  0  0
  9 23  1  0  0  0  0
M  END
