 xtb: 6.7.1 (edcfbbe)
          04112516053D

 23 23  0     0  0            999 V2000
   -4.1009   -0.3210    0.0006 C   0  0  0  0  0  0  0  0  0  0  0  0
   -3.0578    0.6389   -0.0002 O   0  0  0  0  0  0  0  0  0  0  0  0
   -1.7664    0.2007   -0.0001 C   0  0  0  0  0  0  0  0  0  0  0  0
   -1.3687   -1.1155    0.0004 C   0  0  0  0  0  0  0  0  0  0  0  0
   -0.0049   -1.4453    0.0001 C   0  0  0  0  0  0  0  0  0  0  0  0
    0.9316   -0.4096   -0.0004 C   0  0  0  0  0  0  0  0  0  0  0  0
    0.5517    0.9413   -0.0008 C   0  0  0  0  0  0  0  0  0  0  0  0
   -0.8154    1.2475   -0.0010 C   0  0  0  0  0  0  0  0  0  0  0  0
   -1.2593    2.5222   -0.0020 O   0  0  0  0  0  0  0  0  0  0  0  0
    1.5783    1.8223   -0.0016 O   0  0  0  0  0  0  0  0  0  0  0  0
    1.3488    3.2252    0.0047 C   0  0  0  0  0  0  0  0  0  0  0  0
    2.6253   -0.7372   -0.0007 Cl  0  0  0  0  0  0  0  0  0  0  0  0
    0.3506   -2.8547    0.0007 C   0  0  0  0  0  0  0  0  0  0  0  0
    1.4641   -3.3409    0.0009 O   0  0  0  0  0  0  0  0  0  0  0  0
   -4.0578   -0.9457   -0.8936 H   0  0  0  0  0  0  0  0  0  0  0  0
   -5.0200    0.2596    0.0005 H   0  0  0  0  0  0  0  0  0  0  0  0
   -4.0574   -0.9447    0.8955 H   0  0  0  0  0  0  0  0  0  0  0  0
   -2.0893   -1.9154    0.0009 H   0  0  0  0  0  0  0  0  0  0  0  0
   -2.2343    2.5216   -0.0013 H   0  0  0  0  0  0  0  0  0  0  0  0
    0.8078    3.5341    0.8991 H   0  0  0  0  0  0  0  0  0  0  0  0
    0.8049    3.5419   -0.8852 H   0  0  0  0  0  0  0  0  0  0  0  0
    2.3455    3.6612    0.0050 H   0  0  0  0  0  0  0  0  0  0  0  0
   -0.5317   -3.5211    0.0009 H   0  0  0  0  0  0  0  0  0  0  0  0
  1  2  1  0  0  0  0
  2  3  1  0  0  0  0
  3  4  4  0  0  0  0
  4  5  4  0  0  0  0
  5  6  4  0  0  0  0
  6  7  4  0  0  0  0
  3  8  4  0  0  0  0
  7  8  4  0  0  0  0
  8  9  1  0  0  0  0
  7 10  1  0  0  0  0
 10 11  1  0  0  0  0
  6 12  1  0  0  0  0
  5 13  1  0  0  0  0
 13 14  2  0  0  0  0
  1 15  1  0  0  0  0
  1 16  1  0  0  0  0
  1 17  1  0  0  0  0
  4 18  1  0  0  0  0
  9 19  1  0  0  0  0
 11 20  1  0  0  0  0
 11 21  1  0  0  0  0
 11 22  1  0  0  0  0
 13 23  1  0  0  0  0
M  END
