 xtb: 6.7.1 (edcfbbe)
          04112518233D

 26 25  0     0  0            999 V2000
    1.1523   -0.4867   -1.6635 C   0  0  0  0  0  0  0  0  0  0  0  0
    1.8184   -0.6743   -0.3129 C   0  0  0  0  0  0  0  0  0  0  0  0
    3.0292   -1.5979   -0.4244 C   0  0  0  0  0  0  0  0  0  0  0  0
    0.9635   -1.0894    0.8339 C   0  0  0  0  0  0  0  0  0  0  0  0
   -0.2823   -1.1580    1.0301 N   0  0  0  0  0  0  0  0  0  0  0  0
   -1.1557   -0.9449   -0.0760 O   0  0  0  0  0  0  0  0  0  0  0  0
   -2.1175    0.0012    0.1343 C   0  0  0  0  0  0  0  0  0  0  0  0
   -2.0335    0.8603    0.9925 O   0  0  0  0  0  0  0  0  0  0  0  0
   -3.0875   -0.1290   -0.7697 N   0  0  0  0  0  0  0  0  0  0  0  0
   -4.2086    0.7802   -0.8568 C   0  0  0  0  0  0  0  0  0  0  0  0
    2.4940    0.9518    0.3316 S   0  0  0  0  0  0  0  0  0  0  0  0
    1.0595    2.0586    0.3427 C   0  0  0  0  0  0  0  0  0  0  0  0
    0.3508    0.2460   -1.6227 H   0  0  0  0  0  0  0  0  0  0  0  0
    1.8938   -0.1518   -2.3851 H   0  0  0  0  0  0  0  0  0  0  0  0
    0.7333   -1.4339   -1.9970 H   0  0  0  0  0  0  0  0  0  0  0  0
    3.7226   -1.2036   -1.1622 H   0  0  0  0  0  0  0  0  0  0  0  0
    2.7064   -2.5896   -0.7316 H   0  0  0  0  0  0  0  0  0  0  0  0
    3.5463   -1.6702    0.5288 H   0  0  0  0  0  0  0  0  0  0  0  0
    1.5142   -1.3285    1.7367 H   0  0  0  0  0  0  0  0  0  0  0  0
   -3.0373   -0.9023   -1.4156 H   0  0  0  0  0  0  0  0  0  0  0  0
   -4.2284    1.2590   -1.8348 H   0  0  0  0  0  0  0  0  0  0  0  0
   -4.0875    1.5357   -0.0832 H   0  0  0  0  0  0  0  0  0  0  0  0
   -5.1409    0.2415   -0.6941 H   0  0  0  0  0  0  0  0  0  0  0  0
    1.3659    2.9245    0.9204 H   0  0  0  0  0  0  0  0  0  0  0  0
    0.2103    1.5839    0.8285 H   0  0  0  0  0  0  0  0  0  0  0  0
    0.8140    2.3595   -0.6714 H   0  0  0  0  0  0  0  0  0  0  0  0
  1  2  1  0  0  0  0
  2  3  1  0  0  0  0
  2  4  1  0  0  0  0
  4  5  2  0  0  0  0
  5  6  1  0  0  0  0
  6  7  1  0  0  0  0
  7  8  2  0  0  0  0
  7  9  4  0  0  0  0
  9 10  1  0  0  0  0
  2 11  1  0  0  0  0
 11 12  1  0  0  0  0
  1 13  1  0  0  0  0
  1 14  1  0  0  0  0
  1 15  1  0  0  0  0
  3 16  1  0  0  0  0
  3 17  1  0  0  0  0
  3 18  1  0  0  0  0
  4 19  1  0  0  0  0
  9 20  1  0  0  0  0
 10 21  1  0  0  0  0
 10 22  1  0  0  0  0
 10 23  1  0  0  0  0
 12 24  1  0  0  0  0
 12 25  1  0  0  0  0
 12 26  1  0  0  0  0
M  END
