 xtb: 6.7.1 (edcfbbe)
          04112514203D

 23 22  0     0  0            999 V2000
    2.8885   -0.0644   -0.6668 C   0  0  0  0  0  0  0  0  0  0  0  0
    1.8484   -0.9111    0.0585 C   0  0  0  0  0  0  0  0  0  0  0  0
    0.9531   -0.0767    0.9782 C   0  0  0  0  0  0  0  0  0  0  0  0
   -0.0864    0.7742    0.2327 C   0  0  0  0  0  0  0  0  0  0  0  0
   -1.5116    0.2096    0.2843 C   0  0  0  0  0  0  0  0  0  0  0  0
   -2.4886    1.2113   -0.3307 C   0  0  0  0  0  0  0  0  0  0  0  0
   -1.6227   -1.1319   -0.4360 C   0  0  0  0  0  0  0  0  0  0  0  0
    3.5379    0.4345    0.0494 H   0  0  0  0  0  0  0  0  0  0  0  0
    3.5033   -0.6882   -1.3114 H   0  0  0  0  0  0  0  0  0  0  0  0
    2.4131    0.6961   -1.2812 H   0  0  0  0  0  0  0  0  0  0  0  0
    2.3665   -1.6628    0.6591 H   0  0  0  0  0  0  0  0  0  0  0  0
    1.2361   -1.4380   -0.6743 H   0  0  0  0  0  0  0  0  0  0  0  0
    0.4366   -0.7409    1.6743 H   0  0  0  0  0  0  0  0  0  0  0  0
    1.5963    0.5731    1.5756 H   0  0  0  0  0  0  0  0  0  0  0  0
   -0.1088    1.7756    0.6679 H   0  0  0  0  0  0  0  0  0  0  0  0
    0.2068    0.8837   -0.8128 H   0  0  0  0  0  0  0  0  0  0  0  0
   -1.7853    0.0631    1.3360 H   0  0  0  0  0  0  0  0  0  0  0  0
   -2.4478    2.1624    0.1954 H   0  0  0  0  0  0  0  0  0  0  0  0
   -2.2420    1.3862   -1.3759 H   0  0  0  0  0  0  0  0  0  0  0  0
   -3.5070    0.8336   -0.2774 H   0  0  0  0  0  0  0  0  0  0  0  0
   -2.6495   -1.4906   -0.4067 H   0  0  0  0  0  0  0  0  0  0  0  0
   -0.9894   -1.8804    0.0321 H   0  0  0  0  0  0  0  0  0  0  0  0
   -1.3274   -1.0266   -1.4779 H   0  0  0  0  0  0  0  0  0  0  0  0
  1  2  1  0  0  0  0
  2  3  1  0  0  0  0
  3  4  1  0  0  0  0
  4  5  1  0  0  0  0
  5  6  1  0  0  0  0
  5  7  1  0  0  0  0
  1  8  1  0  0  0  0
  1  9  1  0  0  0  0
  1 10  1  0  0  0  0
  2 11  1  0  0  0  0
  2 12  1  0  0  0  0
  3 13  1  0  0  0  0
  3 14  1  0  0  0  0
  4 15  1  0  0  0  0
  4 16  1  0  0  0  0
  5 17  1  0  0  0  0
  6 18  1  0  0  0  0
  6 19  1  0  0  0  0
  6 20  1  0  0  0  0
  7 21  1  0  0  0  0
  7 22  1  0  0  0  0
  7 23  1  0  0  0  0
M  END
