 xtb: 6.7.1 (edcfbbe)
          04112516353D

 19 18  0     0  0            999 V2000
    3.4533   -0.2418    0.1566 C   0  0  0  0  0  0  0  0  0  0  0  0
    2.1997    0.5248   -0.2470 C   0  0  0  0  0  0  0  0  0  0  0  0
    0.9334   -0.1576    0.2635 C   0  0  0  0  0  0  0  0  0  0  0  0
   -0.3277    0.6040   -0.1352 C   0  0  0  0  0  0  0  0  0  0  0  0
   -1.5961   -0.0794    0.3099 C   0  0  0  0  0  0  0  0  0  0  0  0
   -1.6124   -1.2052    0.7676 O   0  0  0  0  0  0  0  0  0  0  0  0
   -2.8440    0.7425    0.1528 C   0  0  0  0  0  0  0  0  0  0  0  0
    3.4277   -1.2516   -0.2469 H   0  0  0  0  0  0  0  0  0  0  0  0
    4.3440    0.2565   -0.2178 H   0  0  0  0  0  0  0  0  0  0  0  0
    3.5258   -0.3100    1.2397 H   0  0  0  0  0  0  0  0  0  0  0  0
    2.1564    0.5991   -1.3357 H   0  0  0  0  0  0  0  0  0  0  0  0
    2.2508    1.5390    0.1550 H   0  0  0  0  0  0  0  0  0  0  0  0
    0.9722   -0.2401    1.3522 H   0  0  0  0  0  0  0  0  0  0  0  0
    0.8747   -1.1739   -0.1325 H   0  0  0  0  0  0  0  0  0  0  0  0
   -0.3125    1.6158    0.2731 H   0  0  0  0  0  0  0  0  0  0  0  0
   -0.3750    0.6951   -1.2236 H   0  0  0  0  0  0  0  0  0  0  0  0
   -2.8304    1.2911   -0.7834 H   0  0  0  0  0  0  0  0  0  0  0  0
   -3.7231    0.1068    0.2108 H   0  0  0  0  0  0  0  0  0  0  0  0
   -2.8827    1.4624    0.9682 H   0  0  0  0  0  0  0  0  0  0  0  0
  1  2  1  0  0  0  0
  2  3  1  0  0  0  0
  3  4  1  0  0  0  0
  4  5  1  0  0  0  0
  5  6  2  0  0  0  0
  5  7  1  0  0  0  0
  1  8  1  0  0  0  0
  1  9  1  0  0  0  0
  1 10  1  0  0  0  0
  2 11  1  0  0  0  0
  2 12  1  0  0  0  0
  3 13  1  0  0  0  0
  3 14  1  0  0  0  0
  4 15  1  0  0  0  0
  4 16  1  0  0  0  0
  7 17  1  0  0  0  0
  7 18  1  0  0  0  0
  7 19  1  0  0  0  0
M  END
