 xtb: 6.7.1 (edcfbbe)
          04112516253D

 17 16  0     0  0            999 V2000
   -3.1063   -0.4132    0.2413 C   0  0  0  0  0  0  0  0  0  0  0  0
   -1.6786    0.0111    0.5638 C   0  0  0  0  0  0  0  0  0  0  0  0
   -0.9725    0.5868   -0.6623 C   0  0  0  0  0  0  0  0  0  0  0  0
    0.4499    1.0418   -0.3424 C   0  0  0  0  0  0  0  0  0  0  0  0
    1.3808   -0.1101   -0.0755 C   0  0  0  0  0  0  0  0  0  0  0  0
    1.2529   -1.2351   -0.5086 O   0  0  0  0  0  0  0  0  0  0  0  0
    2.4064    0.2432    0.6876 O   0  0  0  0  0  0  0  0  0  0  0  0
   -3.5920   -0.8207    1.1243 H   0  0  0  0  0  0  0  0  0  0  0  0
   -3.6856    0.4374   -0.1100 H   0  0  0  0  0  0  0  0  0  0  0  0
   -3.1087   -1.1750   -0.5348 H   0  0  0  0  0  0  0  0  0  0  0  0
   -1.1162   -0.8526    0.9263 H   0  0  0  0  0  0  0  0  0  0  0  0
   -1.6933    0.7599    1.3590 H   0  0  0  0  0  0  0  0  0  0  0  0
   -0.9305   -0.1755   -1.4429 H   0  0  0  0  0  0  0  0  0  0  0  0
   -1.5416    1.4362   -1.0418 H   0  0  0  0  0  0  0  0  0  0  0  0
    0.4735    1.7083    0.5201 H   0  0  0  0  0  0  0  0  0  0  0  0
    0.8682    1.5831   -1.1947 H   0  0  0  0  0  0  0  0  0  0  0  0
    3.0325   -0.4902    0.8433 H   0  0  0  0  0  0  0  0  0  0  0  0
  1  2  1  0  0  0  0
  2  3  1  0  0  0  0
  3  4  1  0  0  0  0
  4  5  1  0  0  0  0
  5  6  2  0  0  0  0
  5  7  1  0  0  0  0
  1  8  1  0  0  0  0
  1  9  1  0  0  0  0
  1 10  1  0  0  0  0
  2 11  1  0  0  0  0
  2 12  1  0  0  0  0
  3 13  1  0  0  0  0
  3 14  1  0  0  0  0
  4 15  1  0  0  0  0
  4 16  1  0  0  0  0
  7 17  1  0  0  0  0
M  END
