 xtb: 6.7.1 (edcfbbe)
          04112516293D

 20 19  0     0  0            999 V2000
   -2.3861   -1.2804   -0.1045 C   0  0  0  0  0  0  0  0  0  0  0  0
   -2.6973    0.2083   -0.0101 C   0  0  0  0  0  0  0  0  0  0  0  0
   -1.6146    1.0045    0.7199 C   0  0  0  0  0  0  0  0  0  0  0  0
   -0.2925    1.0811   -0.0337 C   0  0  0  0  0  0  0  0  0  0  0  0
    0.4379   -0.1413    0.1465 O   0  0  0  0  0  0  0  0  0  0  0  0
    1.7216   -0.1525   -0.1832 C   0  0  0  0  0  0  0  0  0  0  0  0
    2.3008    0.8174   -0.6319 O   0  0  0  0  0  0  0  0  0  0  0  0
    2.3482   -1.4933    0.0557 C   0  0  0  0  0  0  0  0  0  0  0  0
   -2.2504   -1.7024    0.8883 H   0  0  0  0  0  0  0  0  0  0  0  0
   -3.2024   -1.8056   -0.5945 H   0  0  0  0  0  0  0  0  0  0  0  0
   -1.4762   -1.4496   -0.6730 H   0  0  0  0  0  0  0  0  0  0  0  0
   -2.8273    0.6184   -1.0138 H   0  0  0  0  0  0  0  0  0  0  0  0
   -3.6387    0.3414    0.5264 H   0  0  0  0  0  0  0  0  0  0  0  0
   -1.9657    2.0261    0.8682 H   0  0  0  0  0  0  0  0  0  0  0  0
   -1.4278    0.5606    1.6986 H   0  0  0  0  0  0  0  0  0  0  0  0
   -0.4517    1.2356   -1.1061 H   0  0  0  0  0  0  0  0  0  0  0  0
    0.3293    1.9026    0.3383 H   0  0  0  0  0  0  0  0  0  0  0  0
    1.7268   -2.0798    0.7234 H   0  0  0  0  0  0  0  0  0  0  0  0
    3.3456   -1.3586    0.4632 H   0  0  0  0  0  0  0  0  0  0  0  0
    2.4399   -2.0062   -0.8994 H   0  0  0  0  0  0  0  0  0  0  0  0
  1  2  1  0  0  0  0
  2  3  1  0  0  0  0
  3  4  1  0  0  0  0
  4  5  1  0  0  0  0
  5  6  1  0  0  0  0
  6  7  2  0  0  0  0
  6  8  1  0  0  0  0
  1  9  1  0  0  0  0
  1 10  1  0  0  0  0
  1 11  1  0  0  0  0
  2 12  1  0  0  0  0
  2 13  1  0  0  0  0
  3 14  1  0  0  0  0
  3 15  1  0  0  0  0
  4 16  1  0  0  0  0
  4 17  1  0  0  0  0
  8 18  1  0  0  0  0
  8 19  1  0  0  0  0
  8 20  1  0  0  0  0
M  END
