 xtb: 6.7.1 (edcfbbe)
          04112516423D

 26 25  0     0  0            999 V2000
    3.3962   -0.4601   -0.8339 C   0  0  0  0  0  0  0  0  0  0  0  0
    1.9606   -0.5686   -0.3371 C   0  0  0  0  0  0  0  0  0  0  0  0
    1.7011   -1.9490    0.2696 C   0  0  0  0  0  0  0  0  0  0  0  0
    0.9883   -0.2822   -1.4371 C   0  0  0  0  0  0  0  0  0  0  0  0
   -0.2686   -0.1675   -1.4147 N   0  0  0  0  0  0  0  0  0  0  0  0
   -0.8842   -0.3231   -0.1596 O   0  0  0  0  0  0  0  0  0  0  0  0
   -2.2355   -0.0616   -0.1553 C   0  0  0  0  0  0  0  0  0  0  0  0
   -2.8685    0.2682   -1.1343 O   0  0  0  0  0  0  0  0  0  0  0  0
   -2.7007   -0.2315    1.0821 N   0  0  0  0  0  0  0  0  0  0  0  0
   -4.0878   -0.0250    1.4340 C   0  0  0  0  0  0  0  0  0  0  0  0
    1.6916    0.6532    1.0483 S   0  0  0  0  0  0  0  0  0  0  0  0
    1.6726    2.2439    0.1748 C   0  0  0  0  0  0  0  0  0  0  0  0
    3.5850   -1.2244   -1.5846 H   0  0  0  0  0  0  0  0  0  0  0  0
    3.5869    0.5140   -1.2781 H   0  0  0  0  0  0  0  0  0  0  0  0
    4.0832   -0.6051   -0.0042 H   0  0  0  0  0  0  0  0  0  0  0  0
    0.6744   -2.0263    0.6170 H   0  0  0  0  0  0  0  0  0  0  0  0
    2.3677   -2.1053    1.1136 H   0  0  0  0  0  0  0  0  0  0  0  0
    1.8811   -2.7181   -0.4778 H   0  0  0  0  0  0  0  0  0  0  0  0
    1.3917   -0.1342   -2.4306 H   0  0  0  0  0  0  0  0  0  0  0  0
   -2.0477   -0.4796    1.8103 H   0  0  0  0  0  0  0  0  0  0  0  0
   -4.5077   -0.9403    1.8484 H   0  0  0  0  0  0  0  0  0  0  0  0
   -4.6257    0.2446    0.5275 H   0  0  0  0  0  0  0  0  0  0  0  0
   -4.1756    0.7800    2.1624 H   0  0  0  0  0  0  0  0  0  0  0  0
    0.8287    2.2808   -0.5087 H   0  0  0  0  0  0  0  0  0  0  0  0
    2.6093    2.3908   -0.3528 H   0  0  0  0  0  0  0  0  0  0  0  0
    1.5597    2.9985    0.9460 H   0  0  0  0  0  0  0  0  0  0  0  0
  1  2  1  0  0  0  0
  2  3  1  0  0  0  0
  2  4  1  0  0  0  0
  4  5  2  0  0  0  0
  5  6  1  0  0  0  0
  6  7  1  0  0  0  0
  7  8  2  0  0  0  0
  7  9  4  0  0  0  0
  9 10  1  0  0  0  0
  2 11  1  0  0  0  0
 11 12  1  0  0  0  0
  1 13  1  0  0  0  0
  1 14  1  0  0  0  0
  1 15  1  0  0  0  0
  3 16  1  0  0  0  0
  3 17  1  0  0  0  0
  3 18  1  0  0  0  0
  4 19  1  0  0  0  0
  9 20  1  0  0  0  0
 10 21  1  0  0  0  0
 10 22  1  0  0  0  0
 10 23  1  0  0  0  0
 12 24  1  0  0  0  0
 12 25  1  0  0  0  0
 12 26  1  0  0  0  0
M  END
