 xtb: 6.7.1 (edcfbbe)
          04112516113D

 20 19  0     0  0            999 V2000
    3.9717   -0.2807    0.1157 C   0  0  0  0  0  0  0  0  0  0  0  0
    2.6127   -0.0650   -0.4686 C   0  0  0  0  0  0  0  0  0  0  0  0
    2.3087   -0.2249   -1.6300 O   0  0  0  0  0  0  0  0  0  0  0  0
    1.7450    0.3536    0.4604 O   0  0  0  0  0  0  0  0  0  0  0  0
    0.4105    0.6343    0.0526 C   0  0  0  0  0  0  0  0  0  0  0  0
   -0.4146   -0.6543   -0.0444 C   0  0  0  0  0  0  0  0  0  0  0  0
   -1.7476   -0.3717   -0.4560 O   0  0  0  0  0  0  0  0  0  0  0  0
   -2.6140    0.0602    0.4676 C   0  0  0  0  0  0  0  0  0  0  0  0
   -2.3165    0.2090    1.6325 O   0  0  0  0  0  0  0  0  0  0  0  0
   -3.9572    0.3308   -0.1300 C   0  0  0  0  0  0  0  0  0  0  0  0
    4.3934    0.6845    0.3857 H   0  0  0  0  0  0  0  0  0  0  0  0
    4.6100   -0.7699   -0.6122 H   0  0  0  0  0  0  0  0  0  0  0  0
    3.8870   -0.8747    1.0206 H   0  0  0  0  0  0  0  0  0  0  0  0
    0.0001    1.2885    0.8236 H   0  0  0  0  0  0  0  0  0  0  0  0
    0.4181    1.1363   -0.9205 H   0  0  0  0  0  0  0  0  0  0  0  0
   -0.4261   -1.1554    0.9293 H   0  0  0  0  0  0  0  0  0  0  0  0
   -0.0031   -1.3104   -0.8131 H   0  0  0  0  0  0  0  0  0  0  0  0
   -4.7201    0.2677    0.6390 H   0  0  0  0  0  0  0  0  0  0  0  0
   -4.1495   -0.3673   -0.9379 H   0  0  0  0  0  0  0  0  0  0  0  0
   -3.9521    1.3391   -0.5390 H   0  0  0  0  0  0  0  0  0  0  0  0
  1  2  1  0  0  0  0
  2  3  2  0  0  0  0
  2  4  1  0  0  0  0
  4  5  1  0  0  0  0
  5  6  1  0  0  0  0
  6  7  1  0  0  0  0
  7  8  1  0  0  0  0
  8  9  2  0  0  0  0
  8 10  1  0  0  0  0
  1 11  1  0  0  0  0
  1 12  1  0  0  0  0
  1 13  1  0  0  0  0
  5 14  1  0  0  0  0
  5 15  1  0  0  0  0
  6 16  1  0  0  0  0
  6 17  1  0  0  0  0
 10 18  1  0  0  0  0
 10 19  1  0  0  0  0
 10 20  1  0  0  0  0
M  END
