 xtb: 6.7.1 (edcfbbe)
          04112516153D

 26 25  0     0  0            999 V2000
    1.6945   -0.4934   -1.7105 C   0  0  0  0  0  0  0  0  0  0  0  0
    1.9244   -0.7305   -0.2257 C   0  0  0  0  0  0  0  0  0  0  0  0
    3.1790   -1.5704   -0.0047 C   0  0  0  0  0  0  0  0  0  0  0  0
    0.7628   -1.3525    0.4809 C   0  0  0  0  0  0  0  0  0  0  0  0
   -0.4704   -1.0749    0.4923 N   0  0  0  0  0  0  0  0  0  0  0  0
   -0.8921    0.0135   -0.3090 O   0  0  0  0  0  0  0  0  0  0  0  0
   -2.2278    0.3098   -0.2388 C   0  0  0  0  0  0  0  0  0  0  0  0
   -2.6025    1.2701   -0.8891 O   0  0  0  0  0  0  0  0  0  0  0  0
   -2.9674   -0.4780    0.5273 N   0  0  0  0  0  0  0  0  0  0  0  0
   -4.3873   -0.2890    0.7157 C   0  0  0  0  0  0  0  0  0  0  0  0
    2.2306    0.8710    0.7135 S   0  0  0  0  0  0  0  0  0  0  0  0
    1.4594    2.1880   -0.2660 C   0  0  0  0  0  0  0  0  0  0  0  0
    1.5854   -1.4573   -2.2048 H   0  0  0  0  0  0  0  0  0  0  0  0
    0.7971    0.0892   -1.8988 H   0  0  0  0  0  0  0  0  0  0  0  0
    2.5516    0.0196   -2.1401 H   0  0  0  0  0  0  0  0  0  0  0  0
    3.0448   -2.5604   -0.4342 H   0  0  0  0  0  0  0  0  0  0  0  0
    3.3894   -1.6649    1.0576 H   0  0  0  0  0  0  0  0  0  0  0  0
    4.0310   -1.0915   -0.4792 H   0  0  0  0  0  0  0  0  0  0  0  0
    0.9903   -2.1727    1.1506 H   0  0  0  0  0  0  0  0  0  0  0  0
   -2.4964   -1.2306    1.0144 H   0  0  0  0  0  0  0  0  0  0  0  0
   -4.6033   -0.1124    1.7682 H   0  0  0  0  0  0  0  0  0  0  0  0
   -4.9286   -1.1699    0.3741 H   0  0  0  0  0  0  0  0  0  0  0  0
   -4.6933    0.5760    0.1307 H   0  0  0  0  0  0  0  0  0  0  0  0
    1.9752    2.2933   -1.2144 H   0  0  0  0  0  0  0  0  0  0  0  0
    1.5866    3.0863    0.3301 H   0  0  0  0  0  0  0  0  0  0  0  0
    0.4030    1.9881   -0.4132 H   0  0  0  0  0  0  0  0  0  0  0  0
  1  2  1  0  0  0  0
  2  3  1  0  0  0  0
  2  4  1  0  0  0  0
  4  5  2  0  0  0  0
  5  6  1  0  0  0  0
  6  7  1  0  0  0  0
  7  8  2  0  0  0  0
  7  9  4  0  0  0  0
  9 10  1  0  0  0  0
  2 11  1  0  0  0  0
 11 12  1  0  0  0  0
  1 13  1  0  0  0  0
  1 14  1  0  0  0  0
  1 15  1  0  0  0  0
  3 16  1  0  0  0  0
  3 17  1  0  0  0  0
  3 18  1  0  0  0  0
  4 19  1  0  0  0  0
  9 20  1  0  0  0  0
 10 21  1  0  0  0  0
 10 22  1  0  0  0  0
 10 23  1  0  0  0  0
 12 24  1  0  0  0  0
 12 25  1  0  0  0  0
 12 26  1  0  0  0  0
M  END
