 xtb: 6.7.1 (edcfbbe)
          04112516113D

 20 19  0     0  0            999 V2000
    3.1425   -1.4272   -0.4636 C   0  0  0  0  0  0  0  0  0  0  0  0
    2.3431   -0.1634   -0.4965 C   0  0  0  0  0  0  0  0  0  0  0  0
    2.5303    0.7677   -1.2502 O   0  0  0  0  0  0  0  0  0  0  0  0
    1.3842   -0.1644    0.4330 O   0  0  0  0  0  0  0  0  0  0  0  0
    0.5472    0.9872    0.5323 C   0  0  0  0  0  0  0  0  0  0  0  0
   -0.5475    0.9839   -0.5337 C   0  0  0  0  0  0  0  0  0  0  0  0
   -1.3820   -0.1690   -0.4297 O   0  0  0  0  0  0  0  0  0  0  0  0
   -2.3422   -0.1648    0.4987 C   0  0  0  0  0  0  0  0  0  0  0  0
   -2.5304    0.7684    1.2494 O   0  0  0  0  0  0  0  0  0  0  0  0
   -3.1450   -1.4263    0.4631 C   0  0  0  0  0  0  0  0  0  0  0  0
    4.1301   -1.2023   -0.0670 H   0  0  0  0  0  0  0  0  0  0  0  0
    3.2671   -1.8014   -1.4757 H   0  0  0  0  0  0  0  0  0  0  0  0
    2.6510   -2.1602    0.1664 H   0  0  0  0  0  0  0  0  0  0  0  0
    0.1100    0.9432    1.5304 H   0  0  0  0  0  0  0  0  0  0  0  0
    1.1509    1.8911    0.4117 H   0  0  0  0  0  0  0  0  0  0  0  0
   -0.1101    0.9368   -1.5317 H   0  0  0  0  0  0  0  0  0  0  0  0
   -1.1528    1.8873   -0.4169 H   0  0  0  0  0  0  0  0  0  0  0  0
   -4.0313   -1.2505   -0.1432 H   0  0  0  0  0  0  0  0  0  0  0  0
   -3.4647   -1.6838    1.4680 H   0  0  0  0  0  0  0  0  0  0  0  0
   -2.5617   -2.2239    0.0160 H   0  0  0  0  0  0  0  0  0  0  0  0
  1  2  1  0  0  0  0
  2  3  2  0  0  0  0
  2  4  1  0  0  0  0
  4  5  1  0  0  0  0
  5  6  1  0  0  0  0
  6  7  1  0  0  0  0
  7  8  1  0  0  0  0
  8  9  2  0  0  0  0
  8 10  1  0  0  0  0
  1 11  1  0  0  0  0
  1 12  1  0  0  0  0
  1 13  1  0  0  0  0
  5 14  1  0  0  0  0
  5 15  1  0  0  0  0
  6 16  1  0  0  0  0
  6 17  1  0  0  0  0
 10 18  1  0  0  0  0
 10 19  1  0  0  0  0
 10 20  1  0  0  0  0
M  END
