 xtb: 6.7.1 (edcfbbe)
          04112514133D

 23 22  0     0  0            999 V2000
    3.2529   -0.0426   -0.6182 C   0  0  0  0  0  0  0  0  0  0  0  0
    2.1545   -0.2680    0.4145 C   0  0  0  0  0  0  0  0  0  0  0  0
    0.7661   -0.0058   -0.1662 C   0  0  0  0  0  0  0  0  0  0  0  0
   -0.3266   -0.2333    0.8767 C   0  0  0  0  0  0  0  0  0  0  0  0
   -1.7629    0.0074    0.3886 C   0  0  0  0  0  0  0  0  0  0  0  0
   -1.9899    1.4570   -0.0368 C   0  0  0  0  0  0  0  0  0  0  0  0
   -2.1534   -0.9454   -0.7399 C   0  0  0  0  0  0  0  0  0  0  0  0
    3.1175   -0.7066   -1.4690 H   0  0  0  0  0  0  0  0  0  0  0  0
    3.2317    0.9835   -0.9785 H   0  0  0  0  0  0  0  0  0  0  0  0
    4.2314   -0.2345   -0.1847 H   0  0  0  0  0  0  0  0  0  0  0  0
    2.3191    0.3927    1.2689 H   0  0  0  0  0  0  0  0  0  0  0  0
    2.2051   -1.2968    0.7789 H   0  0  0  0  0  0  0  0  0  0  0  0
    0.7247    1.0227   -0.5278 H   0  0  0  0  0  0  0  0  0  0  0  0
    0.6097   -0.6701   -1.0174 H   0  0  0  0  0  0  0  0  0  0  0  0
   -0.2538   -1.2622    1.2392 H   0  0  0  0  0  0  0  0  0  0  0  0
   -0.1376    0.4251    1.7289 H   0  0  0  0  0  0  0  0  0  0  0  0
   -2.4204   -0.1978    1.2427 H   0  0  0  0  0  0  0  0  0  0  0  0
   -3.0449    1.6270   -0.2398 H   0  0  0  0  0  0  0  0  0  0  0  0
   -1.6772    2.1406    0.7491 H   0  0  0  0  0  0  0  0  0  0  0  0
   -1.4315    1.6871   -0.9404 H   0  0  0  0  0  0  0  0  0  0  0  0
   -3.2136   -0.8478   -0.9625 H   0  0  0  0  0  0  0  0  0  0  0  0
   -1.9557   -1.9766   -0.4566 H   0  0  0  0  0  0  0  0  0  0  0  0
   -1.5967   -0.7208   -1.6460 H   0  0  0  0  0  0  0  0  0  0  0  0
  1  2  1  0  0  0  0
  2  3  1  0  0  0  0
  3  4  1  0  0  0  0
  4  5  1  0  0  0  0
  5  6  1  0  0  0  0
  5  7  1  0  0  0  0
  1  8  1  0  0  0  0
  1  9  1  0  0  0  0
  1 10  1  0  0  0  0
  2 11  1  0  0  0  0
  2 12  1  0  0  0  0
  3 13  1  0  0  0  0
  3 14  1  0  0  0  0
  4 15  1  0  0  0  0
  4 16  1  0  0  0  0
  5 17  1  0  0  0  0
  6 18  1  0  0  0  0
  6 19  1  0  0  0  0
  6 20  1  0  0  0  0
  7 21  1  0  0  0  0
  7 22  1  0  0  0  0
  7 23  1  0  0  0  0
M  END
