 xtb: 6.7.1 (edcfbbe)
          04112516013D

 20 19  0     0  0            999 V2000
   -2.1356   -1.2250   -0.4025 C   0  0  0  0  0  0  0  0  0  0  0  0
   -2.5811    0.2040   -0.1158 C   0  0  0  0  0  0  0  0  0  0  0  0
   -1.6591    0.9414    0.8565 C   0  0  0  0  0  0  0  0  0  0  0  0
   -0.2523    1.1727    0.3172 C   0  0  0  0  0  0  0  0  0  0  0  0
    0.5380   -0.0072    0.5260 O   0  0  0  0  0  0  0  0  0  0  0  0
    1.6319   -0.1716   -0.2032 C   0  0  0  0  0  0  0  0  0  0  0  0
    2.0043    0.6298   -1.0379 O   0  0  0  0  0  0  0  0  0  0  0  0
    2.3245   -1.4623    0.1175 C   0  0  0  0  0  0  0  0  0  0  0  0
   -1.1784   -1.2383   -0.9173 H   0  0  0  0  0  0  0  0  0  0  0  0
   -2.0324   -1.7840    0.5242 H   0  0  0  0  0  0  0  0  0  0  0  0
   -2.8659   -1.7282   -1.0315 H   0  0  0  0  0  0  0  0  0  0  0  0
   -2.6345    0.7628   -1.0528 H   0  0  0  0  0  0  0  0  0  0  0  0
   -3.5836    0.1833    0.3157 H   0  0  0  0  0  0  0  0  0  0  0  0
   -2.0925    1.9156    1.0831 H   0  0  0  0  0  0  0  0  0  0  0  0
   -1.5760    0.3772    1.7861 H   0  0  0  0  0  0  0  0  0  0  0  0
   -0.2572    1.4100   -0.7520 H   0  0  0  0  0  0  0  0  0  0  0  0
    0.2387    1.9951    0.8479 H   0  0  0  0  0  0  0  0  0  0  0  0
    2.0543   -2.1953   -0.6399 H   0  0  0  0  0  0  0  0  0  0  0  0
    2.0087   -1.8196    1.0915 H   0  0  0  0  0  0  0  0  0  0  0  0
    3.3996   -1.3164    0.0800 H   0  0  0  0  0  0  0  0  0  0  0  0
  1  2  1  0  0  0  0
  2  3  1  0  0  0  0
  3  4  1  0  0  0  0
  4  5  1  0  0  0  0
  5  6  1  0  0  0  0
  6  7  2  0  0  0  0
  6  8  1  0  0  0  0
  1  9  1  0  0  0  0
  1 10  1  0  0  0  0
  1 11  1  0  0  0  0
  2 12  1  0  0  0  0
  2 13  1  0  0  0  0
  3 14  1  0  0  0  0
  3 15  1  0  0  0  0
  4 16  1  0  0  0  0
  4 17  1  0  0  0  0
  8 18  1  0  0  0  0
  8 19  1  0  0  0  0
  8 20  1  0  0  0  0
M  END
