 xtb: 6.7.1 (edcfbbe)
          04112514083D

 16 15  0     0  0            999 V2000
   -2.4462   -0.9306   -0.2598 C   0  0  0  0  0  0  0  0  0  0  0  0
   -1.9214    0.2417    0.3365 O   0  0  0  0  0  0  0  0  0  0  0  0
   -0.6966    0.6808   -0.2029 C   0  0  0  0  0  0  0  0  0  0  0  0
    0.5015   -0.1858    0.2027 C   0  0  0  0  0  0  0  0  0  0  0  0
    1.6743    0.4879   -0.2014 O   0  0  0  0  0  0  0  0  0  0  0  0
    2.8564   -0.2097    0.1351 C   0  0  0  0  0  0  0  0  0  0  0  0
   -1.8469   -1.8110   -0.0128 H   0  0  0  0  0  0  0  0  0  0  0  0
   -2.5001   -0.8209   -1.3474 H   0  0  0  0  0  0  0  0  0  0  0  0
   -3.4472   -1.0468    0.1485 H   0  0  0  0  0  0  0  0  0  0  0  0
   -0.7504    0.7352   -1.2983 H   0  0  0  0  0  0  0  0  0  0  0  0
   -0.5435    1.6872    0.1923 H   0  0  0  0  0  0  0  0  0  0  0  0
    0.4550   -1.1737   -0.2792 H   0  0  0  0  0  0  0  0  0  0  0  0
    0.4953   -0.3285    1.2937 H   0  0  0  0  0  0  0  0  0  0  0  0
    2.9360   -0.3429    1.2192 H   0  0  0  0  0  0  0  0  0  0  0  0
    3.6799    0.4016   -0.2239 H   0  0  0  0  0  0  0  0  0  0  0  0
    2.8824   -1.1916   -0.3496 H   0  0  0  0  0  0  0  0  0  0  0  0
  1  2  1  0  0  0  0
  2  3  1  0  0  0  0
  3  4  1  0  0  0  0
  4  5  1  0  0  0  0
  5  6  1  0  0  0  0
  1  7  1  0  0  0  0
  1  8  1  0  0  0  0
  1  9  1  0  0  0  0
  3 10  1  0  0  0  0
  3 11  1  0  0  0  0
  4 12  1  0  0  0  0
  4 13  1  0  0  0  0
  6 14  1  0  0  0  0
  6 15  1  0  0  0  0
  6 16  1  0  0  0  0
M  END
