 xtb: 6.7.1 (edcfbbe)
          04112514153D

 17 16  0     0  0            999 V2000
    2.3497   -1.2743    0.2710 C   0  0  0  0  0  0  0  0  0  0  0  0
    2.3744    0.0330   -0.5117 C   0  0  0  0  0  0  0  0  0  0  0  0
    1.3234    1.0206    0.0114 C   0  0  0  0  0  0  0  0  0  0  0  0
   -0.0528    0.5175   -0.2039 C   0  0  0  0  0  0  0  0  0  0  0  0
   -1.0079    0.4359    0.7329 C   0  0  0  0  0  0  0  0  0  0  0  0
   -2.3301   -0.0709    0.4290 C   0  0  0  0  0  0  0  0  0  0  0  0
   -2.7106   -0.4628   -0.6602 O   0  0  0  0  0  0  0  0  0  0  0  0
    2.5434   -1.0919    1.3255 H   0  0  0  0  0  0  0  0  0  0  0  0
    1.3778   -1.7552    0.1803 H   0  0  0  0  0  0  0  0  0  0  0  0
    3.1082   -1.9567   -0.1041 H   0  0  0  0  0  0  0  0  0  0  0  0
    2.1870   -0.1701   -1.5674 H   0  0  0  0  0  0  0  0  0  0  0  0
    3.3613    0.4897   -0.4261 H   0  0  0  0  0  0  0  0  0  0  0  0
    1.4273    1.9586   -0.5411 H   0  0  0  0  0  0  0  0  0  0  0  0
    1.4929    1.2233    1.0696 H   0  0  0  0  0  0  0  0  0  0  0  0
   -0.2979    0.1861   -1.2064 H   0  0  0  0  0  0  0  0  0  0  0  0
   -0.8266    0.7441    1.7512 H   0  0  0  0  0  0  0  0  0  0  0  0
   -3.0262   -0.0922    1.2875 H   0  0  0  0  0  0  0  0  0  0  0  0
  1  2  1  0  0  0  0
  2  3  1  0  0  0  0
  3  4  1  0  0  0  0
  4  5  2  0  0  0  0
  5  6  1  0  0  0  0
  6  7  2  0  0  0  0
  1  8  1  0  0  0  0
  1  9  1  0  0  0  0
  1 10  1  0  0  0  0
  2 11  1  0  0  0  0
  2 12  1  0  0  0  0
  3 13  1  0  0  0  0
  3 14  1  0  0  0  0
  4 15  1  0  0  0  0
  5 16  1  0  0  0  0
  6 17  1  0  0  0  0
M  END
