 xtb: 6.7.1 (edcfbbe)
          04112514143D

 16 15  0     0  0            999 V2000
   -1.7366   -1.1910    0.0293 C   0  0  0  0  0  0  0  0  0  0  0  0
   -1.8050    0.1837   -0.3015 O   0  0  0  0  0  0  0  0  0  0  0  0
   -0.8415    0.9877    0.3426 C   0  0  0  0  0  0  0  0  0  0  0  0
    0.5700    0.8518   -0.2368 C   0  0  0  0  0  0  0  0  0  0  0  0
    1.2045   -0.2922    0.3029 O   0  0  0  0  0  0  0  0  0  0  0  0
    2.5411   -0.4359   -0.1271 C   0  0  0  0  0  0  0  0  0  0  0  0
   -1.8929   -1.3349    1.1036 H   0  0  0  0  0  0  0  0  0  0  0  0
   -0.7712   -1.6204   -0.2476 H   0  0  0  0  0  0  0  0  0  0  0  0
   -2.5353   -1.6722   -0.5296 H   0  0  0  0  0  0  0  0  0  0  0  0
   -1.1873    2.0124    0.1963 H   0  0  0  0  0  0  0  0  0  0  0  0
   -0.8062    0.7564    1.4151 H   0  0  0  0  0  0  0  0  0  0  0  0
    1.1513    1.7489    0.0193 H   0  0  0  0  0  0  0  0  0  0  0  0
    0.5102    0.7714   -1.3319 H   0  0  0  0  0  0  0  0  0  0  0  0
    2.5925   -0.5501   -1.2154 H   0  0  0  0  0  0  0  0  0  0  0  0
    2.9217   -1.3316    0.3568 H   0  0  0  0  0  0  0  0  0  0  0  0
    3.1403    0.4315    0.1699 H   0  0  0  0  0  0  0  0  0  0  0  0
  1  2  1  0  0  0  0
  2  3  1  0  0  0  0
  3  4  1  0  0  0  0
  4  5  1  0  0  0  0
  5  6  1  0  0  0  0
  1  7  1  0  0  0  0
  1  8  1  0  0  0  0
  1  9  1  0  0  0  0
  3 10  1  0  0  0  0
  3 11  1  0  0  0  0
  4 12  1  0  0  0  0
  4 13  1  0  0  0  0
  6 14  1  0  0  0  0
  6 15  1  0  0  0  0
  6 16  1  0  0  0  0
M  END
