 xtb: 6.7.1 (edcfbbe)
          04112516423D

 26 25  0     0  0            999 V2000
    3.1177   -1.2224   -0.7351 C   0  0  0  0  0  0  0  0  0  0  0  0
    1.8517   -0.5916   -0.1696 C   0  0  0  0  0  0  0  0  0  0  0  0
    1.8707   -0.5707    1.3566 C   0  0  0  0  0  0  0  0  0  0  0  0
    0.6420   -1.3074   -0.6876 C   0  0  0  0  0  0  0  0  0  0  0  0
   -0.5839   -1.1171   -0.4528 N   0  0  0  0  0  0  0  0  0  0  0  0
   -0.9072   -0.0755    0.4397 O   0  0  0  0  0  0  0  0  0  0  0  0
   -2.2485    0.1488    0.6138 C   0  0  0  0  0  0  0  0  0  0  0  0
   -2.5580    1.0184    1.4083 O   0  0  0  0  0  0  0  0  0  0  0  0
   -3.0701   -0.6087   -0.0997 N   0  0  0  0  0  0  0  0  0  0  0  0
   -4.5086   -0.4928   -0.0325 C   0  0  0  0  0  0  0  0  0  0  0  0
    1.6620    1.1431   -0.8591 S   0  0  0  0  0  0  0  0  0  0  0  0
    2.9274    2.0717    0.0525 C   0  0  0  0  0  0  0  0  0  0  0  0
    3.1927   -2.2561   -0.4050 H   0  0  0  0  0  0  0  0  0  0  0  0
    3.1019   -1.1928   -1.8216 H   0  0  0  0  0  0  0  0  0  0  0  0
    3.9983   -0.6889   -0.3875 H   0  0  0  0  0  0  0  0  0  0  0  0
    1.0398    0.0116    1.7489 H   0  0  0  0  0  0  0  0  0  0  0  0
    2.8049   -0.1494    1.7173 H   0  0  0  0  0  0  0  0  0  0  0  0
    1.7850   -1.5897    1.7300 H   0  0  0  0  0  0  0  0  0  0  0  0
    0.8054   -2.1142   -1.3901 H   0  0  0  0  0  0  0  0  0  0  0  0
   -2.6554   -1.2932   -0.7197 H   0  0  0  0  0  0  0  0  0  0  0  0
   -4.7510    0.2880    0.6856 H   0  0  0  0  0  0  0  0  0  0  0  0
   -4.9432   -1.4364    0.2939 H   0  0  0  0  0  0  0  0  0  0  0  0
   -4.9073   -0.2251   -1.0099 H   0  0  0  0  0  0  0  0  0  0  0  0
    2.9540    3.0472   -0.4218 H   0  0  0  0  0  0  0  0  0  0  0  0
    3.8917    1.5859   -0.0483 H   0  0  0  0  0  0  0  0  0  0  0  0
    2.6350    2.1736    1.0926 H   0  0  0  0  0  0  0  0  0  0  0  0
  1  2  1  0  0  0  0
  2  3  1  0  0  0  0
  2  4  1  0  0  0  0
  4  5  2  0  0  0  0
  5  6  1  0  0  0  0
  6  7  1  0  0  0  0
  7  8  2  0  0  0  0
  7  9  4  0  0  0  0
  9 10  1  0  0  0  0
  2 11  1  0  0  0  0
 11 12  1  0  0  0  0
  1 13  1  0  0  0  0
  1 14  1  0  0  0  0
  1 15  1  0  0  0  0
  3 16  1  0  0  0  0
  3 17  1  0  0  0  0
  3 18  1  0  0  0  0
  4 19  1  0  0  0  0
  9 20  1  0  0  0  0
 10 21  1  0  0  0  0
 10 22  1  0  0  0  0
 10 23  1  0  0  0  0
 12 24  1  0  0  0  0
 12 25  1  0  0  0  0
 12 26  1  0  0  0  0
M  END
