 xtb: 6.7.1 (edcfbbe)
          04112516153D

 26 25  0     0  0            999 V2000
    3.1114   -0.2810   -0.5236 C   0  0  0  0  0  0  0  0  0  0  0  0
    1.6298   -0.5775   -0.2839 C   0  0  0  0  0  0  0  0  0  0  0  0
    1.4573   -2.0145    0.2193 C   0  0  0  0  0  0  0  0  0  0  0  0
    0.8987   -0.4375   -1.5858 C   0  0  0  0  0  0  0  0  0  0  0  0
   -0.1995    0.0483   -1.9662 N   0  0  0  0  0  0  0  0  0  0  0  0
   -1.0721    0.6608   -1.0350 O   0  0  0  0  0  0  0  0  0  0  0  0
   -1.7148   -0.1427   -0.1351 C   0  0  0  0  0  0  0  0  0  0  0  0
   -1.5791   -1.3504   -0.0953 O   0  0  0  0  0  0  0  0  0  0  0  0
   -2.5179    0.5967    0.6265 N   0  0  0  0  0  0  0  0  0  0  0  0
   -3.2905    0.0441    1.7161 C   0  0  0  0  0  0  0  0  0  0  0  0
    1.0005    0.5144    1.0770 S   0  0  0  0  0  0  0  0  0  0  0  0
    1.3254    2.1831    0.4266 C   0  0  0  0  0  0  0  0  0  0  0  0
    3.5423   -1.0491   -1.1611 H   0  0  0  0  0  0  0  0  0  0  0  0
    3.2476    0.6839   -1.0059 H   0  0  0  0  0  0  0  0  0  0  0  0
    3.6376   -0.2804    0.4278 H   0  0  0  0  0  0  0  0  0  0  0  0
    0.4029   -2.2393    0.3695 H   0  0  0  0  0  0  0  0  0  0  0  0
    1.9788   -2.1306    1.1660 H   0  0  0  0  0  0  0  0  0  0  0  0
    1.8641   -2.7148   -0.5057 H   0  0  0  0  0  0  0  0  0  0  0  0
    1.4486   -0.8442   -2.4292 H   0  0  0  0  0  0  0  0  0  0  0  0
   -2.5074    1.5967    0.4965 H   0  0  0  0  0  0  0  0  0  0  0  0
   -2.9073    0.4040    2.6708 H   0  0  0  0  0  0  0  0  0  0  0  0
   -3.1970   -1.0391    1.6768 H   0  0  0  0  0  0  0  0  0  0  0  0
   -4.3362    0.3256    1.6079 H   0  0  0  0  0  0  0  0  0  0  0  0
    0.8343    2.3044   -0.5343 H   0  0  0  0  0  0  0  0  0  0  0  0
    2.3941    2.3505    0.3512 H   0  0  0  0  0  0  0  0  0  0  0  0
    0.8959    2.8641    1.1533 H   0  0  0  0  0  0  0  0  0  0  0  0
  1  2  1  0  0  0  0
  2  3  1  0  0  0  0
  2  4  1  0  0  0  0
  4  5  2  0  0  0  0
  5  6  1  0  0  0  0
  6  7  1  0  0  0  0
  7  8  2  0  0  0  0
  7  9  4  0  0  0  0
  9 10  1  0  0  0  0
  2 11  1  0  0  0  0
 11 12  1  0  0  0  0
  1 13  1  0  0  0  0
  1 14  1  0  0  0  0
  1 15  1  0  0  0  0
  3 16  1  0  0  0  0
  3 17  1  0  0  0  0
  3 18  1  0  0  0  0
  4 19  1  0  0  0  0
  9 20  1  0  0  0  0
 10 21  1  0  0  0  0
 10 22  1  0  0  0  0
 10 23  1  0  0  0  0
 12 24  1  0  0  0  0
 12 25  1  0  0  0  0
 12 26  1  0  0  0  0
M  END
