 xtb: 6.7.1 (edcfbbe)
          04112516153D

 26 25  0     0  0            999 V2000
    1.2392   -0.4119   -1.6766 C   0  0  0  0  0  0  0  0  0  0  0  0
    1.8733   -0.6305   -0.3147 C   0  0  0  0  0  0  0  0  0  0  0  0
    2.9308   -1.7305   -0.3774 C   0  0  0  0  0  0  0  0  0  0  0  0
    0.9593   -0.8720    0.8388 C   0  0  0  0  0  0  0  0  0  0  0  0
   -0.2787   -0.7107    1.0293 N   0  0  0  0  0  0  0  0  0  0  0  0
   -1.0711   -0.2924   -0.0624 O   0  0  0  0  0  0  0  0  0  0  0  0
   -2.3989   -0.1217    0.2571 C   0  0  0  0  0  0  0  0  0  0  0  0
   -2.8481   -0.2168    1.3779 O   0  0  0  0  0  0  0  0  0  0  0  0
   -3.0764    0.1769   -0.8526 N   0  0  0  0  0  0  0  0  0  0  0  0
   -4.5022    0.4197   -0.8581 C   0  0  0  0  0  0  0  0  0  0  0  0
    2.7920    0.9044    0.2411 S   0  0  0  0  0  0  0  0  0  0  0  0
    1.5006    2.1785    0.2743 C   0  0  0  0  0  0  0  0  0  0  0  0
    0.5475    0.4248   -1.6680 H   0  0  0  0  0  0  0  0  0  0  0  0
    2.0195   -0.2180   -2.4089 H   0  0  0  0  0  0  0  0  0  0  0  0
    0.6926   -1.3061   -1.9693 H   0  0  0  0  0  0  0  0  0  0  0  0
    3.4341   -1.8360    0.5802 H   0  0  0  0  0  0  0  0  0  0  0  0
    3.6738   -1.4824   -1.1306 H   0  0  0  0  0  0  0  0  0  0  0  0
    2.4616   -2.6763   -0.6382 H   0  0  0  0  0  0  0  0  0  0  0  0
    1.4557   -1.1938    1.7467 H   0  0  0  0  0  0  0  0  0  0  0  0
   -2.5793    0.2074   -1.7295 H   0  0  0  0  0  0  0  0  0  0  0  0
   -5.0068   -0.3193   -1.4789 H   0  0  0  0  0  0  0  0  0  0  0  0
   -4.7103    1.4193   -1.2366 H   0  0  0  0  0  0  0  0  0  0  0  0
   -4.8585    0.3368    0.1665 H   0  0  0  0  0  0  0  0  0  0  0  0
    1.9350    3.0213    0.8013 H   0  0  0  0  0  0  0  0  0  0  0  0
    0.6350    1.8118    0.8182 H   0  0  0  0  0  0  0  0  0  0  0  0
    1.2373    2.4683   -0.7380 H   0  0  0  0  0  0  0  0  0  0  0  0
  1  2  1  0  0  0  0
  2  3  1  0  0  0  0
  2  4  1  0  0  0  0
  4  5  2  0  0  0  0
  5  6  1  0  0  0  0
  6  7  1  0  0  0  0
  7  8  2  0  0  0  0
  7  9  4  0  0  0  0
  9 10  1  0  0  0  0
  2 11  1  0  0  0  0
 11 12  1  0  0  0  0
  1 13  1  0  0  0  0
  1 14  1  0  0  0  0
  1 15  1  0  0  0  0
  3 16  1  0  0  0  0
  3 17  1  0  0  0  0
  3 18  1  0  0  0  0
  4 19  1  0  0  0  0
  9 20  1  0  0  0  0
 10 21  1  0  0  0  0
 10 22  1  0  0  0  0
 10 23  1  0  0  0  0
 12 24  1  0  0  0  0
 12 25  1  0  0  0  0
 12 26  1  0  0  0  0
M  END
