 xtb: 6.7.1 (edcfbbe)
          04112516133D

 33 34  0     0  0            999 V2000
   -4.4583    0.0084    1.6313 C   0  0  0  0  0  0  0  0  0  0  0  0
   -3.5190   -0.1397    0.4745 C   0  0  0  0  0  0  0  0  0  0  0  0
   -3.9643   -0.6862   -0.7209 C   0  0  0  0  0  0  0  0  0  0  0  0
   -3.1121   -0.8336   -1.8009 C   0  0  0  0  0  0  0  0  0  0  0  0
   -1.7948   -0.4323   -1.6914 C   0  0  0  0  0  0  0  0  0  0  0  0
   -1.3344    0.1167   -0.5009 C   0  0  0  0  0  0  0  0  0  0  0  0
   -2.1866    0.2707    0.5930 C   0  0  0  0  0  0  0  0  0  0  0  0
   -1.6868    0.8577    1.8767 C   0  0  0  0  0  0  0  0  0  0  0  0
    0.0207    0.5343   -0.4200 N   0  0  0  0  0  0  0  0  0  0  0  0
    1.0419   -0.2638   -0.0532 C   0  0  0  0  0  0  0  0  0  0  0  0
    0.7986   -1.5896    0.3554 C   0  0  0  0  0  0  0  0  0  0  0  0
    1.8236   -2.4132    0.7431 C   0  0  0  0  0  0  0  0  0  0  0  0
    3.1429   -1.9568    0.7440 C   0  0  0  0  0  0  0  0  0  0  0  0
    3.4099   -0.6695    0.3518 C   0  0  0  0  0  0  0  0  0  0  0  0
    2.3840    0.1999   -0.0506 C   0  0  0  0  0  0  0  0  0  0  0  0
    2.7174    1.5527   -0.4582 C   0  0  0  0  0  0  0  0  0  0  0  0
    1.9106    2.4101   -0.8189 O   0  0  0  0  0  0  0  0  0  0  0  0
    4.0215    1.8426   -0.4212 O   0  0  0  0  0  0  0  0  0  0  0  0
   -4.5608    1.0568    1.9070 H   0  0  0  0  0  0  0  0  0  0  0  0
   -5.4404   -0.3815    1.3796 H   0  0  0  0  0  0  0  0  0  0  0  0
   -4.0815   -0.5269    2.5010 H   0  0  0  0  0  0  0  0  0  0  0  0
   -4.9937   -1.0014   -0.8074 H   0  0  0  0  0  0  0  0  0  0  0  0
   -3.4729   -1.2607   -2.7239 H   0  0  0  0  0  0  0  0  0  0  0  0
   -1.1104   -0.5417   -2.5191 H   0  0  0  0  0  0  0  0  0  0  0  0
   -1.7553    0.1249    2.6795 H   0  0  0  0  0  0  0  0  0  0  0  0
   -0.6508    1.1708    1.7830 H   0  0  0  0  0  0  0  0  0  0  0  0
   -2.2887    1.7193    2.1596 H   0  0  0  0  0  0  0  0  0  0  0  0
    0.2596    1.4697   -0.7306 H   0  0  0  0  0  0  0  0  0  0  0  0
   -0.2207   -1.9440    0.3542 H   0  0  0  0  0  0  0  0  0  0  0  0
    1.6074   -3.4252    1.0505 H   0  0  0  0  0  0  0  0  0  0  0  0
    3.9435   -2.6108    1.0500 H   0  0  0  0  0  0  0  0  0  0  0  0
    4.4226   -0.2980    0.3457 H   0  0  0  0  0  0  0  0  0  0  0  0
    4.1826    2.7618   -0.7043 H   0  0  0  0  0  0  0  0  0  0  0  0
  1  2  1  0  0  0  0
  2  3  4  0  0  0  0
  3  4  4  0  0  0  0
  4  5  4  0  0  0  0
  5  6  4  0  0  0  0
  2  7  4  0  0  0  0
  6  7  4  0  0  0  0
  7  8  1  0  0  0  0
  6  9  1  0  0  0  0
  9 10  4  0  0  0  0
 10 11  4  0  0  0  0
 11 12  2  0  0  0  0
 12 13  4  0  0  0  0
 13 14  2  0  0  0  0
 10 15  4  0  0  0  0
 14 15  4  0  0  0  0
 15 16  1  0  0  0  0
 16 17  2  0  0  0  0
 16 18  1  0  0  0  0
  1 19  1  0  0  0  0
  1 20  1  0  0  0  0
  1 21  1  0  0  0  0
  3 22  1  0  0  0  0
  4 23  1  0  0  0  0
  5 24  1  0  0  0  0
  8 25  1  0  0  0  0
  8 26  1  0  0  0  0
  8 27  1  0  0  0  0
  9 28  1  0  0  0  0
 11 29  1  0  0  0  0
 12 30  1  0  0  0  0
 13 31  1  0  0  0  0
 14 32  1  0  0  0  0
 18 33  1  0  0  0  0
M  END
