 xtb: 6.7.1 (edcfbbe)
          04112516013D

 20 19  0     0  0            999 V2000
   -3.2329   -0.6212   -0.1885 C   0  0  0  0  0  0  0  0  0  0  0  0
   -2.1079   -0.2746    0.7803 C   0  0  0  0  0  0  0  0  0  0  0  0
   -1.2763    0.9255    0.3231 C   0  0  0  0  0  0  0  0  0  0  0  0
   -0.3777    0.6108   -0.8705 C   0  0  0  0  0  0  0  0  0  0  0  0
    0.5762   -0.4118   -0.5508 O   0  0  0  0  0  0  0  0  0  0  0  0
    1.7281   -0.0526    0.0035 C   0  0  0  0  0  0  0  0  0  0  0  0
    2.0339    1.1010    0.2284 O   0  0  0  0  0  0  0  0  0  0  0  0
    2.5881   -1.2424    0.3084 C   0  0  0  0  0  0  0  0  0  0  0  0
   -3.8808    0.2387   -0.3414 H   0  0  0  0  0  0  0  0  0  0  0  0
   -2.8387   -0.9333   -1.1516 H   0  0  0  0  0  0  0  0  0  0  0  0
   -3.8315   -1.4358    0.2110 H   0  0  0  0  0  0  0  0  0  0  0  0
   -2.5388   -0.0427    1.7560 H   0  0  0  0  0  0  0  0  0  0  0  0
   -1.4508   -1.1379    0.9022 H   0  0  0  0  0  0  0  0  0  0  0  0
   -1.9338    1.7489    0.0430 H   0  0  0  0  0  0  0  0  0  0  0  0
   -0.6402    1.2652    1.1441 H   0  0  0  0  0  0  0  0  0  0  0  0
   -0.9481    0.2103   -1.7080 H   0  0  0  0  0  0  0  0  0  0  0  0
    0.1644    1.5101   -1.1788 H   0  0  0  0  0  0  0  0  0  0  0  0
    2.2236   -2.1109   -0.2292 H   0  0  0  0  0  0  0  0  0  0  0  0
    2.5460   -1.4320    1.3789 H   0  0  0  0  0  0  0  0  0  0  0  0
    3.6182   -1.0211    0.0457 H   0  0  0  0  0  0  0  0  0  0  0  0
  1  2  1  0  0  0  0
  2  3  1  0  0  0  0
  3  4  1  0  0  0  0
  4  5  1  0  0  0  0
  5  6  1  0  0  0  0
  6  7  2  0  0  0  0
  6  8  1  0  0  0  0
  1  9  1  0  0  0  0
  1 10  1  0  0  0  0
  1 11  1  0  0  0  0
  2 12  1  0  0  0  0
  2 13  1  0  0  0  0
  3 14  1  0  0  0  0
  3 15  1  0  0  0  0
  4 16  1  0  0  0  0
  4 17  1  0  0  0  0
  8 18  1  0  0  0  0
  8 19  1  0  0  0  0
  8 20  1  0  0  0  0
M  END
