 xtb: 6.7.1 (edcfbbe)
          04112516203D

 17 16  0     0  0            999 V2000
   -3.4220   -0.5278   -0.5259 C   0  0  0  0  0  0  0  0  0  0  0  0
   -2.2659   -0.4865    0.4669 C   0  0  0  0  0  0  0  0  0  0  0  0
   -1.6671    0.9146    0.6125 C   0  0  0  0  0  0  0  0  0  0  0  0
   -0.8226    1.3477   -0.5963 C   0  0  0  0  0  0  0  0  0  0  0  0
    0.6691    1.3453   -0.3245 C   0  0  0  0  0  0  0  0  0  0  0  0
    1.3650   -0.4603    0.0716 Br  0  0  0  0  0  0  0  0  0  0  0  0
   -4.2217    0.1356   -0.2039 H   0  0  0  0  0  0  0  0  0  0  0  0
   -3.8205   -1.5368   -0.5973 H   0  0  0  0  0  0  0  0  0  0  0  0
   -3.1021   -0.2193   -1.5182 H   0  0  0  0  0  0  0  0  0  0  0  0
   -2.6295   -0.8131    1.4435 H   0  0  0  0  0  0  0  0  0  0  0  0
   -1.4906   -1.1892    0.1568 H   0  0  0  0  0  0  0  0  0  0  0  0
   -2.4830    1.6232    0.7628 H   0  0  0  0  0  0  0  0  0  0  0  0
   -1.0469    0.9404    1.5113 H   0  0  0  0  0  0  0  0  0  0  0  0
   -1.0340    0.7014   -1.4494 H   0  0  0  0  0  0  0  0  0  0  0  0
   -1.0777    2.3695   -0.8855 H   0  0  0  0  0  0  0  0  0  0  0  0
    0.9237    1.9462    0.5470 H   0  0  0  0  0  0  0  0  0  0  0  0
    1.2369    1.6830   -1.1898 H   0  0  0  0  0  0  0  0  0  0  0  0
  1  2  1  0  0  0  0
  2  3  1  0  0  0  0
  3  4  1  0  0  0  0
  4  5  1  0  0  0  0
  5  6  1  0  0  0  0
  1  7  1  0  0  0  0
  1  8  1  0  0  0  0
  1  9  1  0  0  0  0
  2 10  1  0  0  0  0
  2 11  1  0  0  0  0
  3 12  1  0  0  0  0
  3 13  1  0  0  0  0
  4 14  1  0  0  0  0
  4 15  1  0  0  0  0
  5 16  1  0  0  0  0
  5 17  1  0  0  0  0
M  END
