 xtb: 6.7.1 (edcfbbe)
          04112514523D

 17 16  0     0  0            999 V2000
    2.2747   -1.2993   -0.3524 C   0  0  0  0  0  0  0  0  0  0  0  0
    2.1845   -0.0875    0.5694 C   0  0  0  0  0  0  0  0  0  0  0  0
    1.5107    1.1024   -0.1120 C   0  0  0  0  0  0  0  0  0  0  0  0
    0.0502    0.9914   -0.3491 C   0  0  0  0  0  0  0  0  0  0  0  0
   -0.7920    0.0739    0.1448 C   0  0  0  0  0  0  0  0  0  0  0  0
   -2.2018    0.1065   -0.1580 C   0  0  0  0  0  0  0  0  0  0  0  0
   -3.0320   -0.6843    0.2556 O   0  0  0  0  0  0  0  0  0  0  0  0
    1.2879   -1.6098   -0.6862 H   0  0  0  0  0  0  0  0  0  0  0  0
    2.8721   -1.0639   -1.2303 H   0  0  0  0  0  0  0  0  0  0  0  0
    2.7415   -2.1347    0.1633 H   0  0  0  0  0  0  0  0  0  0  0  0
    3.1936    0.2078    0.8618 H   0  0  0  0  0  0  0  0  0  0  0  0
    1.6440   -0.3491    1.4796 H   0  0  0  0  0  0  0  0  0  0  0  0
    1.9978    1.2950   -1.0720 H   0  0  0  0  0  0  0  0  0  0  0  0
    1.6625    2.0032    0.4923 H   0  0  0  0  0  0  0  0  0  0  0  0
   -0.3636    1.7690   -0.9813 H   0  0  0  0  0  0  0  0  0  0  0  0
   -0.4677   -0.7287    0.7896 H   0  0  0  0  0  0  0  0  0  0  0  0
   -2.5167    0.9310   -0.8256 H   0  0  0  0  0  0  0  0  0  0  0  0
  1  2  1  0  0  0  0
  2  3  1  0  0  0  0
  3  4  1  0  0  0  0
  4  5  2  0  0  0  0
  5  6  1  0  0  0  0
  6  7  2  0  0  0  0
  1  8  1  0  0  0  0
  1  9  1  0  0  0  0
  1 10  1  0  0  0  0
  2 11  1  0  0  0  0
  2 12  1  0  0  0  0
  3 13  1  0  0  0  0
  3 14  1  0  0  0  0
  4 15  1  0  0  0  0
  5 16  1  0  0  0  0
  6 17  1  0  0  0  0
M  END
