 xtb: 6.7.1 (edcfbbe)
          04112516093D

 19 18  0     0  0            999 V2000
    2.3419   -0.8072   -0.1133 C   0  0  0  0  0  0  0  0  0  0  0  0
    1.6184    0.4203   -0.6558 C   0  0  0  0  0  0  0  0  0  0  0  0
    0.8383    1.1801    0.4179 C   0  0  0  0  0  0  0  0  0  0  0  0
   -0.2620    0.3418    1.0880 C   0  0  0  0  0  0  0  0  0  0  0  0
   -1.2038   -0.2688    0.0792 C   0  0  0  0  0  0  0  0  0  0  0  0
   -1.1932   -1.4591   -0.1717 O   0  0  0  0  0  0  0  0  0  0  0  0
   -2.1591    0.6808   -0.5797 C   0  0  0  0  0  0  0  0  0  0  0  0
    2.9530   -0.5428    0.7468 H   0  0  0  0  0  0  0  0  0  0  0  0
    1.6291   -1.5729    0.1832 H   0  0  0  0  0  0  0  0  0  0  0  0
    2.9884   -1.2310   -0.8779 H   0  0  0  0  0  0  0  0  0  0  0  0
    0.9379    0.1076   -1.4517 H   0  0  0  0  0  0  0  0  0  0  0  0
    2.3503    1.1026   -1.0940 H   0  0  0  0  0  0  0  0  0  0  0  0
    0.3942    2.0694   -0.0318 H   0  0  0  0  0  0  0  0  0  0  0  0
    1.5302    1.5108    1.1945 H   0  0  0  0  0  0  0  0  0  0  0  0
    0.1926   -0.4624    1.6671 H   0  0  0  0  0  0  0  0  0  0  0  0
   -0.8299    0.9864    1.7592 H   0  0  0  0  0  0  0  0  0  0  0  0
   -1.6249    1.5396   -0.9750 H   0  0  0  0  0  0  0  0  0  0  0  0
   -2.7021    0.1789   -1.3757 H   0  0  0  0  0  0  0  0  0  0  0  0
   -2.8652    1.0394    0.1658 H   0  0  0  0  0  0  0  0  0  0  0  0
  1  2  1  0  0  0  0
  2  3  1  0  0  0  0
  3  4  1  0  0  0  0
  4  5  1  0  0  0  0
  5  6  2  0  0  0  0
  5  7  1  0  0  0  0
  1  8  1  0  0  0  0
  1  9  1  0  0  0  0
  1 10  1  0  0  0  0
  2 11  1  0  0  0  0
  2 12  1  0  0  0  0
  3 13  1  0  0  0  0
  3 14  1  0  0  0  0
  4 15  1  0  0  0  0
  4 16  1  0  0  0  0
  7 17  1  0  0  0  0
  7 18  1  0  0  0  0
  7 19  1  0  0  0  0
M  END
