 xtb: 6.7.1 (edcfbbe)
          04112514053D

 17 16  0     0  0            999 V2000
   -2.5452   -1.5096    0.4531 C   0  0  0  0  0  0  0  0  0  0  0  0
   -1.8446   -0.4832   -0.4350 C   0  0  0  0  0  0  0  0  0  0  0  0
   -2.2097    0.9339    0.0029 C   0  0  0  0  0  0  0  0  0  0  0  0
   -0.3190   -0.7226   -0.4142 C   0  0  0  0  0  0  0  0  0  0  0  0
    0.3537    0.4573    0.0351 O   0  0  0  0  0  0  0  0  0  0  0  0
    1.6959    0.4087    0.0801 N   0  0  0  0  0  0  0  0  0  0  0  0
    2.2321   -0.6069   -0.2522 O   0  0  0  0  0  0  0  0  0  0  0  0
    2.2117    1.4172    0.4582 O   0  0  0  0  0  0  0  0  0  0  0  0
   -2.2382   -1.3884    1.4889 H   0  0  0  0  0  0  0  0  0  0  0  0
   -2.3096   -2.5211    0.1328 H   0  0  0  0  0  0  0  0  0  0  0  0
   -3.6217   -1.3750    0.3974 H   0  0  0  0  0  0  0  0  0  0  0  0
   -2.1907   -0.6204   -1.4627 H   0  0  0  0  0  0  0  0  0  0  0  0
   -1.7337    1.6733   -0.6348 H   0  0  0  0  0  0  0  0  0  0  0  0
   -1.8951    1.1126    1.0274 H   0  0  0  0  0  0  0  0  0  0  0  0
   -3.2863    1.0648   -0.0580 H   0  0  0  0  0  0  0  0  0  0  0  0
   -0.0617   -1.5423    0.2639 H   0  0  0  0  0  0  0  0  0  0  0  0
    0.0608   -0.9762   -1.4082 H   0  0  0  0  0  0  0  0  0  0  0  0
  1  2  1  0  0  0  0
  2  3  1  0  0  0  0
  2  4  1  0  0  0  0
  4  5  1  0  0  0  0
  5  6  1  0  0  0  0
  6  7  4  0  0  0  0
  6  8  4  0  0  0  0
  1  9  1  0  0  0  0
  1 10  1  0  0  0  0
  1 11  1  0  0  0  0
  2 12  1  0  0  0  0
  3 13  1  0  0  0  0
  3 14  1  0  0  0  0
  3 15  1  0  0  0  0
  4 16  1  0  0  0  0
  4 17  1  0  0  0  0
M  END
