 xtb: 6.7.1 (edcfbbe)
          04112516113D

 17 16  0     0  0            999 V2000
   -1.8642   -1.0225   -0.1780 C   0  0  0  0  0  0  0  0  0  0  0  0
   -2.0001    0.4281    0.2706 C   0  0  0  0  0  0  0  0  0  0  0  0
   -0.8651    1.3250   -0.2249 C   0  0  0  0  0  0  0  0  0  0  0  0
    0.4718    1.0700    0.4868 C   0  0  0  0  0  0  0  0  0  0  0  0
    1.1621   -0.2144    0.1013 C   0  0  0  0  0  0  0  0  0  0  0  0
    1.5034   -1.0566    0.9035 O   0  0  0  0  0  0  0  0  0  0  0  0
    1.4343   -0.3853   -1.1900 O   0  0  0  0  0  0  0  0  0  0  0  0
   -1.8187   -1.0889   -1.2629 H   0  0  0  0  0  0  0  0  0  0  0  0
   -0.9671   -1.4801    0.2328 H   0  0  0  0  0  0  0  0  0  0  0  0
   -2.7183   -1.6026    0.1628 H   0  0  0  0  0  0  0  0  0  0  0  0
   -2.0422    0.4662    1.3607 H   0  0  0  0  0  0  0  0  0  0  0  0
   -2.9430    0.8250   -0.1116 H   0  0  0  0  0  0  0  0  0  0  0  0
   -0.7619    1.1980   -1.3040 H   0  0  0  0  0  0  0  0  0  0  0  0
   -1.1404    2.3642   -0.0390 H   0  0  0  0  0  0  0  0  0  0  0  0
    0.3208    1.0506    1.5665 H   0  0  0  0  0  0  0  0  0  0  0  0
    1.1630    1.8839    0.2540 H   0  0  0  0  0  0  0  0  0  0  0  0
    1.1644    0.3699   -1.7438 H   0  0  0  0  0  0  0  0  0  0  0  0
  1  2  1  0  0  0  0
  2  3  1  0  0  0  0
  3  4  1  0  0  0  0
  4  5  1  0  0  0  0
  5  6  2  0  0  0  0
  5  7  1  0  0  0  0
  1  8  1  0  0  0  0
  1  9  1  0  0  0  0
  1 10  1  0  0  0  0
  2 11  1  0  0  0  0
  2 12  1  0  0  0  0
  3 13  1  0  0  0  0
  3 14  1  0  0  0  0
  4 15  1  0  0  0  0
  4 16  1  0  0  0  0
  7 17  1  0  0  0  0
M  END
