 xtb: 6.7.1 (edcfbbe)
          04112516293D

 20 19  0     0  0            999 V2000
   -2.2071   -1.2402   -0.3692 C   0  0  0  0  0  0  0  0  0  0  0  0
   -2.6096    0.2066   -0.1097 C   0  0  0  0  0  0  0  0  0  0  0  0
   -1.6521    0.9405    0.8303 C   0  0  0  0  0  0  0  0  0  0  0  0
   -0.2552    1.1381    0.2553 C   0  0  0  0  0  0  0  0  0  0  0  0
    0.5030   -0.0688    0.4230 O   0  0  0  0  0  0  0  0  0  0  0  0
    1.7019   -0.1311   -0.1382 C   0  0  0  0  0  0  0  0  0  0  0  0
    2.1833    0.7834   -0.7779 O   0  0  0  0  0  0  0  0  0  0  0  0
    2.3608   -1.4567    0.0997 C   0  0  0  0  0  0  0  0  0  0  0  0
   -1.2500   -1.2910   -0.8809 H   0  0  0  0  0  0  0  0  0  0  0  0
   -2.1208   -1.7839    0.5681 H   0  0  0  0  0  0  0  0  0  0  0  0
   -2.9526   -1.7331   -0.9886 H   0  0  0  0  0  0  0  0  0  0  0  0
   -2.6635    0.7454   -1.0582 H   0  0  0  0  0  0  0  0  0  0  0  0
   -3.6051    0.2232    0.3378 H   0  0  0  0  0  0  0  0  0  0  0  0
   -2.0608    1.9267    1.0513 H   0  0  0  0  0  0  0  0  0  0  0  0
   -1.5593    0.3888    1.7665 H   0  0  0  0  0  0  0  0  0  0  0  0
   -0.2852    1.3902   -0.8102 H   0  0  0  0  0  0  0  0  0  0  0  0
    0.2756    1.9416    0.7771 H   0  0  0  0  0  0  0  0  0  0  0  0
    2.1682   -2.0952   -0.7601 H   0  0  0  0  0  0  0  0  0  0  0  0
    1.9464   -1.9216    0.9876 H   0  0  0  0  0  0  0  0  0  0  0  0
    3.4337   -1.3189    0.1893 H   0  0  0  0  0  0  0  0  0  0  0  0
  1  2  1  0  0  0  0
  2  3  1  0  0  0  0
  3  4  1  0  0  0  0
  4  5  1  0  0  0  0
  5  6  1  0  0  0  0
  6  7  2  0  0  0  0
  6  8  1  0  0  0  0
  1  9  1  0  0  0  0
  1 10  1  0  0  0  0
  1 11  1  0  0  0  0
  2 12  1  0  0  0  0
  2 13  1  0  0  0  0
  3 14  1  0  0  0  0
  3 15  1  0  0  0  0
  4 16  1  0  0  0  0
  4 17  1  0  0  0  0
  8 18  1  0  0  0  0
  8 19  1  0  0  0  0
  8 20  1  0  0  0  0
M  END
