 xtb: 6.7.1 (edcfbbe)
          04112516333D

 17 16  0     0  0            999 V2000
   -3.4586   -0.7921    0.7315 C   0  0  0  0  0  0  0  0  0  0  0  0
   -3.1548    0.1941   -0.3911 C   0  0  0  0  0  0  0  0  0  0  0  0
   -1.6589    0.3591   -0.6599 C   0  0  0  0  0  0  0  0  0  0  0  0
   -0.9133    1.0245    0.4951 C   0  0  0  0  0  0  0  0  0  0  0  0
    0.5393    1.3035    0.1662 C   0  0  0  0  0  0  0  0  0  0  0  0
    1.5714   -0.3634   -0.0783 Br  0  0  0  0  0  0  0  0  0  0  0  0
   -4.5308   -0.9541    0.8079 H   0  0  0  0  0  0  0  0  0  0  0  0
   -3.1057   -0.4197    1.6895 H   0  0  0  0  0  0  0  0  0  0  0  0
   -2.9806   -1.7494    0.5354 H   0  0  0  0  0  0  0  0  0  0  0  0
   -3.6294   -0.1603   -1.3084 H   0  0  0  0  0  0  0  0  0  0  0  0
   -3.5883    1.1668   -0.1489 H   0  0  0  0  0  0  0  0  0  0  0  0
   -1.2208   -0.6227   -0.8556 H   0  0  0  0  0  0  0  0  0  0  0  0
   -1.5289    0.9662   -1.5598 H   0  0  0  0  0  0  0  0  0  0  0  0
   -1.3826    1.9845    0.7254 H   0  0  0  0  0  0  0  0  0  0  0  0
   -0.9683    0.3978    1.3864 H   0  0  0  0  0  0  0  0  0  0  0  0
    1.0447    1.8339    0.9709 H   0  0  0  0  0  0  0  0  0  0  0  0
    0.6485    1.8482   -0.7700 H   0  0  0  0  0  0  0  0  0  0  0  0
  1  2  1  0  0  0  0
  2  3  1  0  0  0  0
  3  4  1  0  0  0  0
  4  5  1  0  0  0  0
  5  6  1  0  0  0  0
  1  7  1  0  0  0  0
  1  8  1  0  0  0  0
  1  9  1  0  0  0  0
  2 10  1  0  0  0  0
  2 11  1  0  0  0  0
  3 12  1  0  0  0  0
  3 13  1  0  0  0  0
  4 14  1  0  0  0  0
  4 15  1  0  0  0  0
  5 16  1  0  0  0  0
  5 17  1  0  0  0  0
M  END
