 xtb: 6.7.1 (edcfbbe)
          04112514143D

 16 15  0     0  0            999 V2000
   -1.6497   -1.1981   -0.0298 C   0  0  0  0  0  0  0  0  0  0  0  0
   -1.7924    0.2103   -0.0189 O   0  0  0  0  0  0  0  0  0  0  0  0
   -0.6556    0.9069    0.4485 C   0  0  0  0  0  0  0  0  0  0  0  0
    0.5322    0.8818   -0.5278 C   0  0  0  0  0  0  0  0  0  0  0  0
    1.2961   -0.3097   -0.4980 O   0  0  0  0  0  0  0  0  0  0  0  0
    2.2281   -0.3853    0.5617 C   0  0  0  0  0  0  0  0  0  0  0  0
   -0.8593   -1.5141   -0.7151 H   0  0  0  0  0  0  0  0  0  0  0  0
   -2.6079   -1.5922   -0.3593 H   0  0  0  0  0  0  0  0  0  0  0  0
   -1.4228   -1.5691    0.9760 H   0  0  0  0  0  0  0  0  0  0  0  0
   -0.9915    1.9383    0.5690 H   0  0  0  0  0  0  0  0  0  0  0  0
   -0.3511    0.5095    1.4266 H   0  0  0  0  0  0  0  0  0  0  0  0
    1.1811    1.7426   -0.3223 H   0  0  0  0  0  0  0  0  0  0  0  0
    0.1476    0.9565   -1.5480 H   0  0  0  0  0  0  0  0  0  0  0  0
    2.9211    0.4619    0.5273 H   0  0  0  0  0  0  0  0  0  0  0  0
    2.7733   -1.3139    0.4124 H   0  0  0  0  0  0  0  0  0  0  0  0
    1.7352   -0.4054    1.5380 H   0  0  0  0  0  0  0  0  0  0  0  0
  1  2  1  0  0  0  0
  2  3  1  0  0  0  0
  3  4  1  0  0  0  0
  4  5  1  0  0  0  0
  5  6  1  0  0  0  0
  1  7  1  0  0  0  0
  1  8  1  0  0  0  0
  1  9  1  0  0  0  0
  3 10  1  0  0  0  0
  3 11  1  0  0  0  0
  4 12  1  0  0  0  0
  4 13  1  0  0  0  0
  6 14  1  0  0  0  0
  6 15  1  0  0  0  0
  6 16  1  0  0  0  0
M  END
