 xtb: 6.7.1 (edcfbbe)
          04112516093D

 19 18  0     0  0            999 V2000
    2.8538    0.9943    0.1369 C   0  0  0  0  0  0  0  0  0  0  0  0
    2.3083   -0.4067   -0.1174 C   0  0  0  0  0  0  0  0  0  0  0  0
    0.8602   -0.5796    0.3390 C   0  0  0  0  0  0  0  0  0  0  0  0
   -0.1290    0.2744   -0.4652 C   0  0  0  0  0  0  0  0  0  0  0  0
   -1.5485   -0.1037   -0.1115 C   0  0  0  0  0  0  0  0  0  0  0  0
   -1.9681   -1.2351   -0.2644 O   0  0  0  0  0  0  0  0  0  0  0  0
   -2.3901    1.0009    0.4509 C   0  0  0  0  0  0  0  0  0  0  0  0
    2.7414    1.2607    1.1853 H   0  0  0  0  0  0  0  0  0  0  0  0
    3.9105    1.0356   -0.1152 H   0  0  0  0  0  0  0  0  0  0  0  0
    2.3338    1.7325   -0.4672 H   0  0  0  0  0  0  0  0  0  0  0  0
    2.9234   -1.1297    0.4226 H   0  0  0  0  0  0  0  0  0  0  0  0
    2.3826   -0.6398   -1.1816 H   0  0  0  0  0  0  0  0  0  0  0  0
    0.7804   -0.3204    1.3972 H   0  0  0  0  0  0  0  0  0  0  0  0
    0.5705   -1.6277    0.2307 H   0  0  0  0  0  0  0  0  0  0  0  0
    0.0377    1.3334   -0.2823 H   0  0  0  0  0  0  0  0  0  0  0  0
    0.0185    0.0635   -1.5269 H   0  0  0  0  0  0  0  0  0  0  0  0
   -3.3889    0.6422    0.6832 H   0  0  0  0  0  0  0  0  0  0  0  0
   -1.9155    1.3854    1.3507 H   0  0  0  0  0  0  0  0  0  0  0  0
   -2.4463    1.8127   -0.2704 H   0  0  0  0  0  0  0  0  0  0  0  0
  1  2  1  0  0  0  0
  2  3  1  0  0  0  0
  3  4  1  0  0  0  0
  4  5  1  0  0  0  0
  5  6  2  0  0  0  0
  5  7  1  0  0  0  0
  1  8  1  0  0  0  0
  1  9  1  0  0  0  0
  1 10  1  0  0  0  0
  2 11  1  0  0  0  0
  2 12  1  0  0  0  0
  3 13  1  0  0  0  0
  3 14  1  0  0  0  0
  4 15  1  0  0  0  0
  4 16  1  0  0  0  0
  7 17  1  0  0  0  0
  7 18  1  0  0  0  0
  7 19  1  0  0  0  0
M  END
