 xtb: 6.7.1 (edcfbbe)
          04112514233D

 23 22  0     0  0            999 V2000
    2.6319    1.6396    0.1400 C   0  0  0  0  0  0  0  0  0  0  0  0
    1.8450    0.3987   -0.2781 C   0  0  0  0  0  0  0  0  0  0  0  0
    2.8009   -0.6782   -0.7865 C   0  0  0  0  0  0  0  0  0  0  0  0
    1.0075   -0.1027    0.9051 C   0  0  0  0  0  0  0  0  0  0  0  0
   -0.0206   -1.1638    0.5221 C   0  0  0  0  0  0  0  0  0  0  0  0
   -0.9503   -0.6666   -0.4508 O   0  0  0  0  0  0  0  0  0  0  0  0
   -2.0297   -0.0215   -0.0241 C   0  0  0  0  0  0  0  0  0  0  0  0
   -2.2840    0.1580    1.1499 O   0  0  0  0  0  0  0  0  0  0  0  0
   -2.8885    0.4344   -1.1656 C   0  0  0  0  0  0  0  0  0  0  0  0
    1.9617    2.4268    0.4775 H   0  0  0  0  0  0  0  0  0  0  0  0
    3.2139    2.0200   -0.6955 H   0  0  0  0  0  0  0  0  0  0  0  0
    3.3133    1.3971    0.9523 H   0  0  0  0  0  0  0  0  0  0  0  0
    1.1620    0.6737   -1.0894 H   0  0  0  0  0  0  0  0  0  0  0  0
    3.4138   -0.2820   -1.5922 H   0  0  0  0  0  0  0  0  0  0  0  0
    2.2581   -1.5379   -1.1689 H   0  0  0  0  0  0  0  0  0  0  0  0
    3.4582   -1.0085    0.0146 H   0  0  0  0  0  0  0  0  0  0  0  0
    0.4709    0.7390    1.3507 H   0  0  0  0  0  0  0  0  0  0  0  0
    1.6618   -0.5259    1.6681 H   0  0  0  0  0  0  0  0  0  0  0  0
    0.4458   -2.0271    0.0484 H   0  0  0  0  0  0  0  0  0  0  0  0
   -0.5790   -1.4777    1.4096 H   0  0  0  0  0  0  0  0  0  0  0  0
   -3.0435    1.5072   -1.0870 H   0  0  0  0  0  0  0  0  0  0  0  0
   -3.8595   -0.0483   -1.0894 H   0  0  0  0  0  0  0  0  0  0  0  0
   -2.4157    0.1835   -2.1086 H   0  0  0  0  0  0  0  0  0  0  0  0
  1  2  1  0  0  0  0
  2  3  1  0  0  0  0
  2  4  1  0  0  0  0
  4  5  1  0  0  0  0
  5  6  1  0  0  0  0
  6  7  1  0  0  0  0
  7  8  2  0  0  0  0
  7  9  1  0  0  0  0
  1 10  1  0  0  0  0
  1 11  1  0  0  0  0
  1 12  1  0  0  0  0
  2 13  1  0  0  0  0
  3 14  1  0  0  0  0
  3 15  1  0  0  0  0
  3 16  1  0  0  0  0
  4 17  1  0  0  0  0
  4 18  1  0  0  0  0
  5 19  1  0  0  0  0
  5 20  1  0  0  0  0
  9 21  1  0  0  0  0
  9 22  1  0  0  0  0
  9 23  1  0  0  0  0
M  END
