 xtb: 6.7.1 (edcfbbe)
          04112516213D

 19 18  0     0  0            999 V2000
    2.8336    1.0063    0.1413 C   0  0  0  0  0  0  0  0  0  0  0  0
    2.2973   -0.4027   -0.0873 C   0  0  0  0  0  0  0  0  0  0  0  0
    0.8379   -0.5671    0.3360 C   0  0  0  0  0  0  0  0  0  0  0  0
   -0.1308    0.2548   -0.5268 C   0  0  0  0  0  0  0  0  0  0  0  0
   -1.5540   -0.0986   -0.1656 C   0  0  0  0  0  0  0  0  0  0  0  0
   -2.0160   -1.2021   -0.3863 O   0  0  0  0  0  0  0  0  0  0  0  0
   -2.3419    0.9898    0.4972 C   0  0  0  0  0  0  0  0  0  0  0  0
    2.6995    1.2999    1.1798 H   0  0  0  0  0  0  0  0  0  0  0  0
    3.8951    1.0441   -0.0904 H   0  0  0  0  0  0  0  0  0  0  0  0
    2.3247    1.7269   -0.4926 H   0  0  0  0  0  0  0  0  0  0  0  0
    2.8994   -1.1085    0.4890 H   0  0  0  0  0  0  0  0  0  0  0  0
    2.3996   -0.6659   -1.1420 H   0  0  0  0  0  0  0  0  0  0  0  0
    0.7288   -0.2721    1.3821 H   0  0  0  0  0  0  0  0  0  0  0  0
    0.5565   -1.6199    0.2555 H   0  0  0  0  0  0  0  0  0  0  0  0
    0.0427    1.3193   -0.3877 H   0  0  0  0  0  0  0  0  0  0  0  0
    0.0328   -0.0095   -1.5735 H   0  0  0  0  0  0  0  0  0  0  0  0
   -3.3307    0.6345    0.7737 H   0  0  0  0  0  0  0  0  0  0  0  0
   -1.8079    1.3338    1.3796 H   0  0  0  0  0  0  0  0  0  0  0  0
   -2.4318    1.8299   -0.1878 H   0  0  0  0  0  0  0  0  0  0  0  0
  1  2  1  0  0  0  0
  2  3  1  0  0  0  0
  3  4  1  0  0  0  0
  4  5  1  0  0  0  0
  5  6  2  0  0  0  0
  5  7  1  0  0  0  0
  1  8  1  0  0  0  0
  1  9  1  0  0  0  0
  1 10  1  0  0  0  0
  2 11  1  0  0  0  0
  2 12  1  0  0  0  0
  3 13  1  0  0  0  0
  3 14  1  0  0  0  0
  4 15  1  0  0  0  0
  4 16  1  0  0  0  0
  7 17  1  0  0  0  0
  7 18  1  0  0  0  0
  7 19  1  0  0  0  0
M  END
