 xtb: 6.7.1 (edcfbbe)
          04112516013D

 20 19  0     0  0            999 V2000
   -2.2127   -1.3041    0.2738 C   0  0  0  0  0  0  0  0  0  0  0  0
   -2.6033    0.1654    0.3729 C   0  0  0  0  0  0  0  0  0  0  0  0
   -1.7105    1.0842   -0.4624 C   0  0  0  0  0  0  0  0  0  0  0  0
   -0.2699    1.1563    0.0282 C   0  0  0  0  0  0  0  0  0  0  0  0
    0.4591    0.0229   -0.4656 O   0  0  0  0  0  0  0  0  0  0  0  0
    1.6832   -0.1791    0.0004 C   0  0  0  0  0  0  0  0  0  0  0  0
    2.2097    0.5479    0.8200 O   0  0  0  0  0  0  0  0  0  0  0  0
    2.3105   -1.4054   -0.5914 C   0  0  0  0  0  0  0  0  0  0  0  0
   -1.2132   -1.4676    0.6671 H   0  0  0  0  0  0  0  0  0  0  0  0
   -2.9081   -1.9177    0.8415 H   0  0  0  0  0  0  0  0  0  0  0  0
   -2.2283   -1.6318   -0.7627 H   0  0  0  0  0  0  0  0  0  0  0  0
   -3.6321    0.2831    0.0275 H   0  0  0  0  0  0  0  0  0  0  0  0
   -2.5660    0.4827    1.4173 H   0  0  0  0  0  0  0  0  0  0  0  0
   -1.6995    0.7454   -1.4990 H   0  0  0  0  0  0  0  0  0  0  0  0
   -2.1197    2.0943   -0.4352 H   0  0  0  0  0  0  0  0  0  0  0  0
    0.2272    2.0592   -0.3421 H   0  0  0  0  0  0  0  0  0  0  0  0
   -0.2117    1.1634    1.1219 H   0  0  0  0  0  0  0  0  0  0  0  0
    2.2200   -2.2192    0.1251 H   0  0  0  0  0  0  0  0  0  0  0  0
    3.3665   -1.2239   -0.7661 H   0  0  0  0  0  0  0  0  0  0  0  0
    1.8000   -1.6760   -1.5092 H   0  0  0  0  0  0  0  0  0  0  0  0
  1  2  1  0  0  0  0
  2  3  1  0  0  0  0
  3  4  1  0  0  0  0
  4  5  1  0  0  0  0
  5  6  1  0  0  0  0
  6  7  2  0  0  0  0
  6  8  1  0  0  0  0
  1  9  1  0  0  0  0
  1 10  1  0  0  0  0
  1 11  1  0  0  0  0
  2 12  1  0  0  0  0
  2 13  1  0  0  0  0
  3 14  1  0  0  0  0
  3 15  1  0  0  0  0
  4 16  1  0  0  0  0
  4 17  1  0  0  0  0
  8 18  1  0  0  0  0
  8 19  1  0  0  0  0
  8 20  1  0  0  0  0
M  END
