 xtb: 6.7.1 (edcfbbe)
          04112516213D

 19 18  0     0  0            999 V2000
    2.8812    0.5320   -0.7123 C   0  0  0  0  0  0  0  0  0  0  0  0
    2.2667    0.0461    0.5958 C   0  0  0  0  0  0  0  0  0  0  0  0
    0.7699    0.3422    0.7020 C   0  0  0  0  0  0  0  0  0  0  0  0
   -0.0521   -0.4559   -0.3157 C   0  0  0  0  0  0  0  0  0  0  0  0
   -1.5409   -0.3124   -0.1304 C   0  0  0  0  0  0  0  0  0  0  0  0
   -2.2720   -1.2838   -0.0657 O   0  0  0  0  0  0  0  0  0  0  0  0
   -2.0684    1.0888   -0.0395 C   0  0  0  0  0  0  0  0  0  0  0  0
    2.6915    1.5938   -0.8511 H   0  0  0  0  0  0  0  0  0  0  0  0
    3.9570    0.3757   -0.7010 H   0  0  0  0  0  0  0  0  0  0  0  0
    2.4726   -0.0085   -1.5621 H   0  0  0  0  0  0  0  0  0  0  0  0
    2.7729    0.5389    1.4285 H   0  0  0  0  0  0  0  0  0  0  0  0
    2.4322   -1.0283    0.6988 H   0  0  0  0  0  0  0  0  0  0  0  0
    0.6093    1.4102    0.5548 H   0  0  0  0  0  0  0  0  0  0  0  0
    0.4325    0.0812    1.7075 H   0  0  0  0  0  0  0  0  0  0  0  0
    0.1800   -0.1088   -1.3246 H   0  0  0  0  0  0  0  0  0  0  0  0
    0.2005   -1.5165   -0.2524 H   0  0  0  0  0  0  0  0  0  0  0  0
   -3.1447    1.0906   -0.1895 H   0  0  0  0  0  0  0  0  0  0  0  0
   -1.8564    1.4734    0.9562 H   0  0  0  0  0  0  0  0  0  0  0  0
   -1.5813    1.7316   -0.7658 H   0  0  0  0  0  0  0  0  0  0  0  0
  1  2  1  0  0  0  0
  2  3  1  0  0  0  0
  3  4  1  0  0  0  0
  4  5  1  0  0  0  0
  5  6  2  0  0  0  0
  5  7  1  0  0  0  0
  1  8  1  0  0  0  0
  1  9  1  0  0  0  0
  1 10  1  0  0  0  0
  2 11  1  0  0  0  0
  2 12  1  0  0  0  0
  3 13  1  0  0  0  0
  3 14  1  0  0  0  0
  4 15  1  0  0  0  0
  4 16  1  0  0  0  0
  7 17  1  0  0  0  0
  7 18  1  0  0  0  0
  7 19  1  0  0  0  0
M  END
