 xtb: 6.7.1 (edcfbbe)
          04112516133D

 13 12  0     0  0            999 V2000
    2.8445   -0.0224   -0.3877 C   0  0  0  0  0  0  0  0  0  0  0  0
    1.4774   -0.1085    0.1933 C   0  0  0  0  0  0  0  0  0  0  0  0
    1.0341   -1.0599    0.7962 O   0  0  0  0  0  0  0  0  0  0  0  0
    0.6081    1.1264   -0.0476 C   0  0  0  0  0  0  0  0  0  0  0  0
   -0.7034    0.9251    0.4570 O   0  0  0  0  0  0  0  0  0  0  0  0
   -1.4386   -0.0382   -0.1616 N   0  0  0  0  0  0  0  0  0  0  0  0
   -0.9953   -0.5139   -1.1609 O   0  0  0  0  0  0  0  0  0  0  0  0
   -2.4753   -0.2739    0.3727 O   0  0  0  0  0  0  0  0  0  0  0  0
    2.7682   -0.2300   -1.4541 H   0  0  0  0  0  0  0  0  0  0  0  0
    3.2595    0.9725   -0.2653 H   0  0  0  0  0  0  0  0  0  0  0  0
    3.4889   -0.7712    0.0627 H   0  0  0  0  0  0  0  0  0  0  0  0
    0.5837    1.3649   -1.1153 H   0  0  0  0  0  0  0  0  0  0  0  0
    0.9849    1.9771    0.5209 H   0  0  0  0  0  0  0  0  0  0  0  0
  1  2  1  0  0  0  0
  2  3  2  0  0  0  0
  2  4  1  0  0  0  0
  4  5  1  0  0  0  0
  5  6  1  0  0  0  0
  6  7  4  0  0  0  0
  6  8  4  0  0  0  0
  1  9  1  0  0  0  0
  1 10  1  0  0  0  0
  1 11  1  0  0  0  0
  4 12  1  0  0  0  0
  4 13  1  0  0  0  0
M  END
