 xtb: 6.7.1 (edcfbbe)
          04112516273D

 20 19  0     0  0            999 V2000
    2.3814   -1.3803    0.5155 C   0  0  0  0  0  0  0  0  0  0  0  0
    1.5456   -0.4263   -0.2760 C   0  0  0  0  0  0  0  0  0  0  0  0
    0.9464   -0.6970   -1.2956 O   0  0  0  0  0  0  0  0  0  0  0  0
    1.5287    0.7838    0.2813 O   0  0  0  0  0  0  0  0  0  0  0  0
    0.6979    1.7978   -0.2944 C   0  0  0  0  0  0  0  0  0  0  0  0
   -0.7066    1.7837    0.3093 C   0  0  0  0  0  0  0  0  0  0  0  0
   -1.5269    0.7656   -0.2748 O   0  0  0  0  0  0  0  0  0  0  0  0
   -1.5379   -0.4492    0.2713 C   0  0  0  0  0  0  0  0  0  0  0  0
   -0.9022   -0.7390    1.2633 O   0  0  0  0  0  0  0  0  0  0  0  0
   -2.4503   -1.3739   -0.4705 C   0  0  0  0  0  0  0  0  0  0  0  0
    1.7429   -1.7982    1.2932 H   0  0  0  0  0  0  0  0  0  0  0  0
    3.2040   -0.8531    0.9867 H   0  0  0  0  0  0  0  0  0  0  0  0
    2.7334   -2.1827   -0.1245 H   0  0  0  0  0  0  0  0  0  0  0  0
    1.1920    2.7389   -0.0554 H   0  0  0  0  0  0  0  0  0  0  0  0
    0.6393    1.6456   -1.3767 H   0  0  0  0  0  0  0  0  0  0  0  0
   -1.2145    2.7203    0.0812 H   0  0  0  0  0  0  0  0  0  0  0  0
   -0.6430    1.6211    1.3898 H   0  0  0  0  0  0  0  0  0  0  0  0
   -2.2027   -2.4018   -0.2271 H   0  0  0  0  0  0  0  0  0  0  0  0
   -2.3589   -1.1942   -1.5370 H   0  0  0  0  0  0  0  0  0  0  0  0
   -3.4745   -1.1673   -0.1674 H   0  0  0  0  0  0  0  0  0  0  0  0
  1  2  1  0  0  0  0
  2  3  2  0  0  0  0
  2  4  1  0  0  0  0
  4  5  1  0  0  0  0
  5  6  1  0  0  0  0
  6  7  1  0  0  0  0
  7  8  1  0  0  0  0
  8  9  2  0  0  0  0
  8 10  1  0  0  0  0
  1 11  1  0  0  0  0
  1 12  1  0  0  0  0
  1 13  1  0  0  0  0
  5 14  1  0  0  0  0
  5 15  1  0  0  0  0
  6 16  1  0  0  0  0
  6 17  1  0  0  0  0
 10 18  1  0  0  0  0
 10 19  1  0  0  0  0
 10 20  1  0  0  0  0
M  END
