 xtb: 6.7.1 (edcfbbe)
          04112516013D

 20 19  0     0  0            999 V2000
   -3.5778   -0.7471    0.1887 C   0  0  0  0  0  0  0  0  0  0  0  0
   -2.1363   -0.3484    0.4801 C   0  0  0  0  0  0  0  0  0  0  0  0
   -1.6207    0.6741   -0.5311 C   0  0  0  0  0  0  0  0  0  0  0  0
   -0.1800    1.0794   -0.2560 C   0  0  0  0  0  0  0  0  0  0  0  0
    0.6703   -0.0519   -0.4948 O   0  0  0  0  0  0  0  0  0  0  0  0
    1.8688   -0.0706    0.0739 C   0  0  0  0  0  0  0  0  0  0  0  0
    2.2857    0.8252    0.7804 O   0  0  0  0  0  0  0  0  0  0  0  0
    2.6181   -1.3257   -0.2595 C   0  0  0  0  0  0  0  0  0  0  0  0
   -4.2285    0.1231    0.2288 H   0  0  0  0  0  0  0  0  0  0  0  0
   -3.6575   -1.1903   -0.8009 H   0  0  0  0  0  0  0  0  0  0  0  0
   -3.9268   -1.4719    0.9195 H   0  0  0  0  0  0  0  0  0  0  0  0
   -2.0702    0.0741    1.4853 H   0  0  0  0  0  0  0  0  0  0  0  0
   -1.4982   -1.2335    0.4469 H   0  0  0  0  0  0  0  0  0  0  0  0
   -1.6775    0.2541   -1.5361 H   0  0  0  0  0  0  0  0  0  0  0  0
   -2.2375    1.5724   -0.4962 H   0  0  0  0  0  0  0  0  0  0  0  0
    0.1377    1.8883   -0.9218 H   0  0  0  0  0  0  0  0  0  0  0  0
   -0.0412    1.4087    0.7793 H   0  0  0  0  0  0  0  0  0  0  0  0
    2.5977   -1.4846   -1.3335 H   0  0  0  0  0  0  0  0  0  0  0  0
    2.1234   -2.1683    0.2172 H   0  0  0  0  0  0  0  0  0  0  0  0
    3.6387   -1.2470    0.0995 H   0  0  0  0  0  0  0  0  0  0  0  0
  1  2  1  0  0  0  0
  2  3  1  0  0  0  0
  3  4  1  0  0  0  0
  4  5  1  0  0  0  0
  5  6  1  0  0  0  0
  6  7  2  0  0  0  0
  6  8  1  0  0  0  0
  1  9  1  0  0  0  0
  1 10  1  0  0  0  0
  1 11  1  0  0  0  0
  2 12  1  0  0  0  0
  2 13  1  0  0  0  0
  3 14  1  0  0  0  0
  3 15  1  0  0  0  0
  4 16  1  0  0  0  0
  4 17  1  0  0  0  0
  8 18  1  0  0  0  0
  8 19  1  0  0  0  0
  8 20  1  0  0  0  0
M  END
