 xtb: 6.7.1 (edcfbbe)
          04112516133D

 33 34  0     0  0            999 V2000
   -4.3220   -0.6924    1.6855 C   0  0  0  0  0  0  0  0  0  0  0  0
   -3.4598   -0.3553    0.5044 C   0  0  0  0  0  0  0  0  0  0  0  0
   -4.0255   -0.3433   -0.7647 C   0  0  0  0  0  0  0  0  0  0  0  0
   -3.2806   -0.0102   -1.8809 C   0  0  0  0  0  0  0  0  0  0  0  0
   -1.9428    0.3016   -1.7380 C   0  0  0  0  0  0  0  0  0  0  0  0
   -1.3561    0.2752   -0.4789 C   0  0  0  0  0  0  0  0  0  0  0  0
   -2.1064   -0.0399    0.6588 C   0  0  0  0  0  0  0  0  0  0  0  0
   -1.4570    0.0242    2.0105 C   0  0  0  0  0  0  0  0  0  0  0  0
    0.0107    0.6267   -0.3689 N   0  0  0  0  0  0  0  0  0  0  0  0
    1.0208   -0.2275   -0.1057 C   0  0  0  0  0  0  0  0  0  0  0  0
    0.7686   -1.5974    0.1060 C   0  0  0  0  0  0  0  0  0  0  0  0
    1.7827   -2.4696    0.4093 C   0  0  0  0  0  0  0  0  0  0  0  0
    3.1004   -2.0215    0.5110 C   0  0  0  0  0  0  0  0  0  0  0  0
    3.3799   -0.6973    0.2831 C   0  0  0  0  0  0  0  0  0  0  0  0
    2.3662    0.2208   -0.0316 C   0  0  0  0  0  0  0  0  0  0  0  0
    2.7208    1.6045   -0.2967 C   0  0  0  0  0  0  0  0  0  0  0  0
    1.9362    2.4933   -0.6272 O   0  0  0  0  0  0  0  0  0  0  0  0
    4.0212    1.8819   -0.1664 O   0  0  0  0  0  0  0  0  0  0  0  0
   -4.3352    0.1295    2.3987 H   0  0  0  0  0  0  0  0  0  0  0  0
   -5.3417   -0.8841    1.3634 H   0  0  0  0  0  0  0  0  0  0  0  0
   -3.9513   -1.5810    2.1938 H   0  0  0  0  0  0  0  0  0  0  0  0
   -5.0713   -0.5881   -0.8782 H   0  0  0  0  0  0  0  0  0  0  0  0
   -3.7399    0.0054   -2.8573 H   0  0  0  0  0  0  0  0  0  0  0  0
   -1.3400    0.5646   -2.5942 H   0  0  0  0  0  0  0  0  0  0  0  0
   -2.0750   -0.4340    2.7736 H   0  0  0  0  0  0  0  0  0  0  0  0
   -0.4900   -0.4733    2.0046 H   0  0  0  0  0  0  0  0  0  0  0  0
   -1.2887    1.0665    2.2811 H   0  0  0  0  0  0  0  0  0  0  0  0
    0.2812    1.5609   -0.6577 H   0  0  0  0  0  0  0  0  0  0  0  0
   -0.2462   -1.9513    0.0076 H   0  0  0  0  0  0  0  0  0  0  0  0
    1.5585   -3.5138    0.5659 H   0  0  0  0  0  0  0  0  0  0  0  0
    3.8917   -2.7118    0.7546 H   0  0  0  0  0  0  0  0  0  0  0  0
    4.3944   -0.3353    0.3388 H   0  0  0  0  0  0  0  0  0  0  0  0
    4.1992    2.8206   -0.3619 H   0  0  0  0  0  0  0  0  0  0  0  0
  1  2  1  0  0  0  0
  2  3  4  0  0  0  0
  3  4  4  0  0  0  0
  4  5  4  0  0  0  0
  5  6  4  0  0  0  0
  2  7  4  0  0  0  0
  6  7  4  0  0  0  0
  7  8  1  0  0  0  0
  6  9  1  0  0  0  0
  9 10  4  0  0  0  0
 10 11  4  0  0  0  0
 11 12  2  0  0  0  0
 12 13  4  0  0  0  0
 13 14  2  0  0  0  0
 10 15  4  0  0  0  0
 14 15  4  0  0  0  0
 15 16  1  0  0  0  0
 16 17  2  0  0  0  0
 16 18  1  0  0  0  0
  1 19  1  0  0  0  0
  1 20  1  0  0  0  0
  1 21  1  0  0  0  0
  3 22  1  0  0  0  0
  4 23  1  0  0  0  0
  5 24  1  0  0  0  0
  8 25  1  0  0  0  0
  8 26  1  0  0  0  0
  8 27  1  0  0  0  0
  9 28  1  0  0  0  0
 11 29  1  0  0  0  0
 12 30  1  0  0  0  0
 13 31  1  0  0  0  0
 14 32  1  0  0  0  0
 18 33  1  0  0  0  0
M  END
