 xtb: 6.7.1 (edcfbbe)
          04112516153D

 26 25  0     0  0            999 V2000
    1.1207    0.2187   -1.5810 C   0  0  0  0  0  0  0  0  0  0  0  0
    1.7505   -0.3312   -0.3094 C   0  0  0  0  0  0  0  0  0  0  0  0
    2.9472   -1.2241   -0.6207 C   0  0  0  0  0  0  0  0  0  0  0  0
    0.8211   -1.0817    0.5973 C   0  0  0  0  0  0  0  0  0  0  0  0
   -0.4287   -1.0841    0.7561 N   0  0  0  0  0  0  0  0  0  0  0  0
   -1.2066   -0.2410   -0.0570 O   0  0  0  0  0  0  0  0  0  0  0  0
   -2.5627   -0.3974    0.1312 C   0  0  0  0  0  0  0  0  0  0  0  0
   -3.0582   -1.2122    0.8774 O   0  0  0  0  0  0  0  0  0  0  0  0
   -3.2111    0.4726   -0.6444 N   0  0  0  0  0  0  0  0  0  0  0  0
   -4.6542    0.5567   -0.6898 C   0  0  0  0  0  0  0  0  0  0  0  0
    2.2655    1.0898    0.8028 S   0  0  0  0  0  0  0  0  0  0  0  0
    3.7586    1.7183   -0.0292 C   0  0  0  0  0  0  0  0  0  0  0  0
    0.4001    0.9973   -1.3475 H   0  0  0  0  0  0  0  0  0  0  0  0
    1.8895    0.6338   -2.2285 H   0  0  0  0  0  0  0  0  0  0  0  0
    0.6119   -0.5807   -2.1160 H   0  0  0  0  0  0  0  0  0  0  0  0
    3.6380   -0.7225   -1.2924 H   0  0  0  0  0  0  0  0  0  0  0  0
    2.5964   -2.1324   -1.1069 H   0  0  0  0  0  0  0  0  0  0  0  0
    3.4722   -1.4981    0.2915 H   0  0  0  0  0  0  0  0  0  0  0  0
    1.3062   -1.7479    1.3001 H   0  0  0  0  0  0  0  0  0  0  0  0
   -2.6728    1.1057   -1.2155 H   0  0  0  0  0  0  0  0  0  0  0  0
   -4.9833    1.5451   -0.3722 H   0  0  0  0  0  0  0  0  0  0  0  0
   -5.0531   -0.1942   -0.0113 H   0  0  0  0  0  0  0  0  0  0  0  0
   -5.0090    0.3597   -1.7004 H   0  0  0  0  0  0  0  0  0  0  0  0
    4.0064    2.6329    0.4987 H   0  0  0  0  0  0  0  0  0  0  0  0
    3.5371    1.9389   -1.0674 H   0  0  0  0  0  0  0  0  0  0  0  0
    4.5681    1.0035    0.0669 H   0  0  0  0  0  0  0  0  0  0  0  0
  1  2  1  0  0  0  0
  2  3  1  0  0  0  0
  2  4  1  0  0  0  0
  4  5  2  0  0  0  0
  5  6  1  0  0  0  0
  6  7  1  0  0  0  0
  7  8  2  0  0  0  0
  7  9  4  0  0  0  0
  9 10  1  0  0  0  0
  2 11  1  0  0  0  0
 11 12  1  0  0  0  0
  1 13  1  0  0  0  0
  1 14  1  0  0  0  0
  1 15  1  0  0  0  0
  3 16  1  0  0  0  0
  3 17  1  0  0  0  0
  3 18  1  0  0  0  0
  4 19  1  0  0  0  0
  9 20  1  0  0  0  0
 10 21  1  0  0  0  0
 10 22  1  0  0  0  0
 10 23  1  0  0  0  0
 12 24  1  0  0  0  0
 12 25  1  0  0  0  0
 12 26  1  0  0  0  0
M  END
