 xtb: 6.7.1 (edcfbbe)
          04112514113D

 17 16  0     0  0            999 V2000
   -2.4606   -0.2511    0.9929 C   0  0  0  0  0  0  0  0  0  0  0  0
   -1.6798   -0.6826   -0.2459 C   0  0  0  0  0  0  0  0  0  0  0  0
   -1.5547    0.4692   -1.2417 C   0  0  0  0  0  0  0  0  0  0  0  0
   -0.2994   -1.2191    0.1542 C   0  0  0  0  0  0  0  0  0  0  0  0
    0.4951   -0.2019    0.7710 O   0  0  0  0  0  0  0  0  0  0  0  0
    1.4508    0.4101    0.0392 N   0  0  0  0  0  0  0  0  0  0  0  0
    1.6582    0.0324   -1.0729 O   0  0  0  0  0  0  0  0  0  0  0  0
    2.0063    1.2905    0.6242 O   0  0  0  0  0  0  0  0  0  0  0  0
   -2.6133   -1.0929    1.6625 H   0  0  0  0  0  0  0  0  0  0  0  0
   -3.4312    0.1433    0.7062 H   0  0  0  0  0  0  0  0  0  0  0  0
   -1.9171    0.5228    1.5298 H   0  0  0  0  0  0  0  0  0  0  0  0
   -2.2013   -1.5126   -0.7306 H   0  0  0  0  0  0  0  0  0  0  0  0
   -0.9359    0.1861   -2.0907 H   0  0  0  0  0  0  0  0  0  0  0  0
   -1.1146    1.3451   -0.7668 H   0  0  0  0  0  0  0  0  0  0  0  0
   -2.5367    0.7507   -1.6105 H   0  0  0  0  0  0  0  0  0  0  0  0
   -0.3935   -1.9957    0.9139 H   0  0  0  0  0  0  0  0  0  0  0  0
    0.2341   -1.6095   -0.7161 H   0  0  0  0  0  0  0  0  0  0  0  0
  1  2  1  0  0  0  0
  2  3  1  0  0  0  0
  2  4  1  0  0  0  0
  4  5  1  0  0  0  0
  5  6  1  0  0  0  0
  6  7  4  0  0  0  0
  6  8  4  0  0  0  0
  1  9  1  0  0  0  0
  1 10  1  0  0  0  0
  1 11  1  0  0  0  0
  2 12  1  0  0  0  0
  3 13  1  0  0  0  0
  3 14  1  0  0  0  0
  3 15  1  0  0  0  0
  4 16  1  0  0  0  0
  4 17  1  0  0  0  0
M  END
