 xtb: 6.7.1 (edcfbbe)
          04112514243D

 14 13  0     0  0            999 V2000
    0.6784   -0.0002   -0.3552 C   0  0  0  0  0  0  0  0  0  0  0  0
   -0.6784   -0.0000    0.3552 C   0  0  0  0  0  0  0  0  0  0  0  0
   -1.8074   -0.0002   -0.6610 C   0  0  0  0  0  0  0  0  0  0  0  0
   -3.4026    0.0001    0.1713 Cl  0  0  0  0  0  0  0  0  0  0  0  0
    1.8074    0.0001    0.6610 C   0  0  0  0  0  0  0  0  0  0  0  0
    3.4025   -0.0000   -0.1714 Cl  0  0  0  0  0  0  0  0  0  0  0  0
    0.7623    0.8823   -0.9904 H   0  0  0  0  0  0  0  0  0  0  0  0
    0.7621   -0.8829   -0.9901 H   0  0  0  0  0  0  0  0  0  0  0  0
   -0.7622    0.8828    0.9899 H   0  0  0  0  0  0  0  0  0  0  0  0
   -0.7621   -0.8824    0.9906 H   0  0  0  0  0  0  0  0  0  0  0  0
   -1.7884    0.8921   -1.2839 H   0  0  0  0  0  0  0  0  0  0  0  0
   -1.7885   -0.8928   -1.2836 H   0  0  0  0  0  0  0  0  0  0  0  0
    1.7885    0.8927    1.2835 H   0  0  0  0  0  0  0  0  0  0  0  0
    1.7885   -0.8920    1.2840 H   0  0  0  0  0  0  0  0  0  0  0  0
  1  2  1  0  0  0  0
  2  3  1  0  0  0  0
  3  4  1  0  0  0  0
  1  5  1  0  0  0  0
  5  6  1  0  0  0  0
  1  7  1  0  0  0  0
  1  8  1  0  0  0  0
  2  9  1  0  0  0  0
  2 10  1  0  0  0  0
  3 11  1  0  0  0  0
  3 12  1  0  0  0  0
  5 13  1  0  0  0  0
  5 14  1  0  0  0  0
M  END
