 xtb: 6.7.1 (edcfbbe)
          04112516353D

 19 18  0     0  0            999 V2000
    3.0843   -0.3829    0.3702 C   0  0  0  0  0  0  0  0  0  0  0  0
    1.6814    0.2007    0.4838 C   0  0  0  0  0  0  0  0  0  0  0  0
    0.9506    0.1777   -0.8574 C   0  0  0  0  0  0  0  0  0  0  0  0
   -0.4473    0.7854   -0.7555 C   0  0  0  0  0  0  0  0  0  0  0  0
   -1.4235   -0.0824    0.0016 C   0  0  0  0  0  0  0  0  0  0  0  0
   -1.2573   -1.2745    0.1689 O   0  0  0  0  0  0  0  0  0  0  0  0
   -2.6311    0.6418    0.5242 C   0  0  0  0  0  0  0  0  0  0  0  0
    3.5875   -0.3591    1.3336 H   0  0  0  0  0  0  0  0  0  0  0  0
    3.0387   -1.4156    0.0320 H   0  0  0  0  0  0  0  0  0  0  0  0
    3.6767    0.1861   -0.3429 H   0  0  0  0  0  0  0  0  0  0  0  0
    1.7458    1.2301    0.8446 H   0  0  0  0  0  0  0  0  0  0  0  0
    1.1066   -0.3757    1.2125 H   0  0  0  0  0  0  0  0  0  0  0  0
    0.8617   -0.8561   -1.1982 H   0  0  0  0  0  0  0  0  0  0  0  0
    1.5334    0.7316   -1.5953 H   0  0  0  0  0  0  0  0  0  0  0  0
   -0.4072    1.7722   -0.2933 H   0  0  0  0  0  0  0  0  0  0  0  0
   -0.8662    0.9077   -1.7581 H   0  0  0  0  0  0  0  0  0  0  0  0
   -3.0145    1.3321   -0.2209 H   0  0  0  0  0  0  0  0  0  0  0  0
   -3.3998   -0.0673    0.8187 H   0  0  0  0  0  0  0  0  0  0  0  0
   -2.3323    1.2177    1.3980 H   0  0  0  0  0  0  0  0  0  0  0  0
  1  2  1  0  0  0  0
  2  3  1  0  0  0  0
  3  4  1  0  0  0  0
  4  5  1  0  0  0  0
  5  6  2  0  0  0  0
  5  7  1  0  0  0  0
  1  8  1  0  0  0  0
  1  9  1  0  0  0  0
  1 10  1  0  0  0  0
  2 11  1  0  0  0  0
  2 12  1  0  0  0  0
  3 13  1  0  0  0  0
  3 14  1  0  0  0  0
  4 15  1  0  0  0  0
  4 16  1  0  0  0  0
  7 17  1  0  0  0  0
  7 18  1  0  0  0  0
  7 19  1  0  0  0  0
M  END
