 xtb: 6.7.1 (edcfbbe)
          04112516153D

 26 25  0     0  0            999 V2000
    3.1486   -1.4596   -0.7480 C   0  0  0  0  0  0  0  0  0  0  0  0
    1.9352   -0.7203   -0.1925 C   0  0  0  0  0  0  0  0  0  0  0  0
    1.9978   -0.6519    1.3267 C   0  0  0  0  0  0  0  0  0  0  0  0
    0.6762   -1.3480   -0.7008 C   0  0  0  0  0  0  0  0  0  0  0  0
   -0.5393   -1.0883   -0.4722 N   0  0  0  0  0  0  0  0  0  0  0  0
   -0.8019   -0.0257    0.4244 O   0  0  0  0  0  0  0  0  0  0  0  0
   -2.1259    0.2701    0.6145 C   0  0  0  0  0  0  0  0  0  0  0  0
   -2.3687    1.2024    1.3609 O   0  0  0  0  0  0  0  0  0  0  0  0
   -2.9983   -0.4896   -0.0309 N   0  0  0  0  0  0  0  0  0  0  0  0
   -4.4279   -0.3019    0.0588 C   0  0  0  0  0  0  0  0  0  0  0  0
    1.9829    0.9858   -0.9863 S   0  0  0  0  0  0  0  0  0  0  0  0
    1.4835    2.1667    0.2958 C   0  0  0  0  0  0  0  0  0  0  0  0
    3.1372   -1.4411   -1.8349 H   0  0  0  0  0  0  0  0  0  0  0  0
    4.0611   -0.9773   -0.4090 H   0  0  0  0  0  0  0  0  0  0  0  0
    3.1453   -2.4917   -0.4056 H   0  0  0  0  0  0  0  0  0  0  0  0
    2.9083   -0.1465    1.6385 H   0  0  0  0  0  0  0  0  0  0  0  0
    2.0135   -1.6665    1.7210 H   0  0  0  0  0  0  0  0  0  0  0  0
    1.1391   -0.1353    1.7467 H   0  0  0  0  0  0  0  0  0  0  0  0
    0.7862   -2.1497   -1.4202 H   0  0  0  0  0  0  0  0  0  0  0  0
   -2.6290   -1.2215   -0.6253 H   0  0  0  0  0  0  0  0  0  0  0  0
   -4.8363   -0.0711   -0.9240 H   0  0  0  0  0  0  0  0  0  0  0  0
   -4.6178    0.5285    0.7360 H   0  0  0  0  0  0  0  0  0  0  0  0
   -4.8974   -1.2043    0.4472 H   0  0  0  0  0  0  0  0  0  0  0  0
    0.4831    1.9443    0.6537 H   0  0  0  0  0  0  0  0  0  0  0  0
    1.4914    3.1311   -0.2029 H   0  0  0  0  0  0  0  0  0  0  0  0
    2.2039    2.1606    1.1065 H   0  0  0  0  0  0  0  0  0  0  0  0
  1  2  1  0  0  0  0
  2  3  1  0  0  0  0
  2  4  1  0  0  0  0
  4  5  2  0  0  0  0
  5  6  1  0  0  0  0
  6  7  1  0  0  0  0
  7  8  2  0  0  0  0
  7  9  4  0  0  0  0
  9 10  1  0  0  0  0
  2 11  1  0  0  0  0
 11 12  1  0  0  0  0
  1 13  1  0  0  0  0
  1 14  1  0  0  0  0
  1 15  1  0  0  0  0
  3 16  1  0  0  0  0
  3 17  1  0  0  0  0
  3 18  1  0  0  0  0
  4 19  1  0  0  0  0
  9 20  1  0  0  0  0
 10 21  1  0  0  0  0
 10 22  1  0  0  0  0
 10 23  1  0  0  0  0
 12 24  1  0  0  0  0
 12 25  1  0  0  0  0
 12 26  1  0  0  0  0
M  END
