 xtb: 6.7.1 (edcfbbe)
          04112514053D

 17 16  0     0  0            999 V2000
   -2.1072   -1.2977    0.8053 C   0  0  0  0  0  0  0  0  0  0  0  0
   -1.8761   -0.4487   -0.4421 C   0  0  0  0  0  0  0  0  0  0  0  0
   -2.3933    0.9739   -0.2447 C   0  0  0  0  0  0  0  0  0  0  0  0
   -0.3913   -0.4308   -0.8085 C   0  0  0  0  0  0  0  0  0  0  0  0
    0.3255    0.1660    0.2780 O   0  0  0  0  0  0  0  0  0  0  0  0
    1.6560    0.2803    0.1379 N   0  0  0  0  0  0  0  0  0  0  0  0
    2.1498   -0.1206   -0.8740 O   0  0  0  0  0  0  0  0  0  0  0  0
    2.2070    0.7848    1.0695 O   0  0  0  0  0  0  0  0  0  0  0  0
   -1.5734   -0.8733    1.6517 H   0  0  0  0  0  0  0  0  0  0  0  0
   -1.7595   -2.3156    0.6481 H   0  0  0  0  0  0  0  0  0  0  0  0
   -3.1659   -1.3290    1.0447 H   0  0  0  0  0  0  0  0  0  0  0  0
   -2.3976   -0.9055   -1.2882 H   0  0  0  0  0  0  0  0  0  0  0  0
   -3.4543    0.9568   -0.0135 H   0  0  0  0  0  0  0  0  0  0  0  0
   -2.2466    1.5654   -1.1449 H   0  0  0  0  0  0  0  0  0  0  0  0
   -1.8679    1.4531    0.5772 H   0  0  0  0  0  0  0  0  0  0  0  0
   -0.0104   -1.4440   -0.9684 H   0  0  0  0  0  0  0  0  0  0  0  0
   -0.2137    0.1575   -1.7139 H   0  0  0  0  0  0  0  0  0  0  0  0
  1  2  1  0  0  0  0
  2  3  1  0  0  0  0
  2  4  1  0  0  0  0
  4  5  1  0  0  0  0
  5  6  1  0  0  0  0
  6  7  4  0  0  0  0
  6  8  4  0  0  0  0
  1  9  1  0  0  0  0
  1 10  1  0  0  0  0
  1 11  1  0  0  0  0
  2 12  1  0  0  0  0
  3 13  1  0  0  0  0
  3 14  1  0  0  0  0
  3 15  1  0  0  0  0
  4 16  1  0  0  0  0
  4 17  1  0  0  0  0
M  END
