 xtb: 6.7.1 (edcfbbe)
          04112518233D

 26 25  0     0  0            999 V2000
    1.1694   -0.4864   -1.6604 C   0  0  0  0  0  0  0  0  0  0  0  0
    1.8317   -0.6671   -0.3070 C   0  0  0  0  0  0  0  0  0  0  0  0
    3.0522   -1.5784   -0.4132 C   0  0  0  0  0  0  0  0  0  0  0  0
    0.9762   -1.0899    0.8365 C   0  0  0  0  0  0  0  0  0  0  0  0
   -0.2696   -1.1668    1.0290 N   0  0  0  0  0  0  0  0  0  0  0  0
   -1.1410   -0.9575   -0.0793 O   0  0  0  0  0  0  0  0  0  0  0  0
   -2.1144   -0.0237    0.1332 C   0  0  0  0  0  0  0  0  0  0  0  0
   -2.0433    0.8312    0.9967 O   0  0  0  0  0  0  0  0  0  0  0  0
   -3.0799   -0.1597   -0.7748 N   0  0  0  0  0  0  0  0  0  0  0  0
   -4.2110    0.7372   -0.8602 C   0  0  0  0  0  0  0  0  0  0  0  0
    2.4884    0.9658    0.3403 S   0  0  0  0  0  0  0  0  0  0  0  0
    1.0428    2.0580    0.3461 C   0  0  0  0  0  0  0  0  0  0  0  0
    0.3597    0.2374   -1.6230 H   0  0  0  0  0  0  0  0  0  0  0  0
    1.9104   -0.1432   -2.3787 H   0  0  0  0  0  0  0  0  0  0  0  0
    0.7623   -1.4380   -1.9958 H   0  0  0  0  0  0  0  0  0  0  0  0
    3.7444   -1.1777   -1.1485 H   0  0  0  0  0  0  0  0  0  0  0  0
    2.7405   -2.5735   -0.7212 H   0  0  0  0  0  0  0  0  0  0  0  0
    3.5661   -1.6452    0.5420 H   0  0  0  0  0  0  0  0  0  0  0  0
    1.5258   -1.3267    1.7406 H   0  0  0  0  0  0  0  0  0  0  0  0
   -3.0186   -0.9281   -1.4254 H   0  0  0  0  0  0  0  0  0  0  0  0
   -4.2319    1.2233   -1.8346 H   0  0  0  0  0  0  0  0  0  0  0  0
   -4.1021    1.4882   -0.0805 H   0  0  0  0  0  0  0  0  0  0  0  0
   -5.1378    0.1866   -0.7059 H   0  0  0  0  0  0  0  0  0  0  0  0
    0.7960    2.3538   -0.6692 H   0  0  0  0  0  0  0  0  0  0  0  0
    1.3395    2.9284    0.9220 H   0  0  0  0  0  0  0  0  0  0  0  0
    0.1976    1.5760    0.8318 H   0  0  0  0  0  0  0  0  0  0  0  0
  1  2  1  0  0  0  0
  2  3  1  0  0  0  0
  2  4  1  0  0  0  0
  4  5  2  0  0  0  0
  5  6  1  0  0  0  0
  6  7  1  0  0  0  0
  7  8  2  0  0  0  0
  7  9  4  0  0  0  0
  9 10  1  0  0  0  0
  2 11  1  0  0  0  0
 11 12  1  0  0  0  0
  1 13  1  0  0  0  0
  1 14  1  0  0  0  0
  1 15  1  0  0  0  0
  3 16  1  0  0  0  0
  3 17  1  0  0  0  0
  3 18  1  0  0  0  0
  4 19  1  0  0  0  0
  9 20  1  0  0  0  0
 10 21  1  0  0  0  0
 10 22  1  0  0  0  0
 10 23  1  0  0  0  0
 12 24  1  0  0  0  0
 12 25  1  0  0  0  0
 12 26  1  0  0  0  0
M  END
