 xtb: 6.7.1 (edcfbbe)
          04112516593D

 20 19  0     0  0            999 V2000
   -3.2432   -0.7769   -0.4469 C   0  0  0  0  0  0  0  0  0  0  0  0
   -1.8082   -0.2662   -0.4862 C   0  0  0  0  0  0  0  0  0  0  0  0
   -1.5202    0.6873    0.6722 C   0  0  0  0  0  0  0  0  0  0  0  0
   -0.1082    1.2625    0.6169 C   0  0  0  0  0  0  0  0  0  0  0  0
    0.8663    0.2328    0.8376 O   0  0  0  0  0  0  0  0  0  0  0  0
    1.6298   -0.1697   -0.1708 C   0  0  0  0  0  0  0  0  0  0  0  0
    1.5804    0.3039   -1.2879 O   0  0  0  0  0  0  0  0  0  0  0  0
    2.5582   -1.2698    0.2503 C   0  0  0  0  0  0  0  0  0  0  0  0
   -3.4268   -1.4567   -1.2747 H   0  0  0  0  0  0  0  0  0  0  0  0
   -3.4328   -1.3069    0.4833 H   0  0  0  0  0  0  0  0  0  0  0  0
   -3.9427    0.0521   -0.5200 H   0  0  0  0  0  0  0  0  0  0  0  0
   -1.1196   -1.1136   -0.4389 H   0  0  0  0  0  0  0  0  0  0  0  0
   -1.6259    0.2494   -1.4323 H   0  0  0  0  0  0  0  0  0  0  0  0
   -2.2215    1.5218    0.6423 H   0  0  0  0  0  0  0  0  0  0  0  0
   -1.6487    0.1613    1.6195 H   0  0  0  0  0  0  0  0  0  0  0  0
    0.0883    1.7262   -0.3548 H   0  0  0  0  0  0  0  0  0  0  0  0
    0.0447    1.9903    1.4165 H   0  0  0  0  0  0  0  0  0  0  0  0
    3.5817   -0.9672    0.0457 H   0  0  0  0  0  0  0  0  0  0  0  0
    2.3482   -2.1548   -0.3450 H   0  0  0  0  0  0  0  0  0  0  0  0
    2.4260   -1.4827    1.3053 H   0  0  0  0  0  0  0  0  0  0  0  0
  1  2  1  0  0  0  0
  2  3  1  0  0  0  0
  3  4  1  0  0  0  0
  4  5  1  0  0  0  0
  5  6  1  0  0  0  0
  6  7  2  0  0  0  0
  6  8  1  0  0  0  0
  1  9  1  0  0  0  0
  1 10  1  0  0  0  0
  1 11  1  0  0  0  0
  2 12  1  0  0  0  0
  2 13  1  0  0  0  0
  3 14  1  0  0  0  0
  3 15  1  0  0  0  0
  4 16  1  0  0  0  0
  4 17  1  0  0  0  0
  8 18  1  0  0  0  0
  8 19  1  0  0  0  0
  8 20  1  0  0  0  0
M  END
