 xtb: 6.7.1 (edcfbbe)
          04112516293D

 20 19  0     0  0            999 V2000
   -3.2236   -0.6280   -0.1801 C   0  0  0  0  0  0  0  0  0  0  0  0
   -2.1006   -0.2701    0.7869 C   0  0  0  0  0  0  0  0  0  0  0  0
   -1.2750    0.9321    0.3241 C   0  0  0  0  0  0  0  0  0  0  0  0
   -0.3806    0.6190   -0.8730 C   0  0  0  0  0  0  0  0  0  0  0  0
    0.5713   -0.4076   -0.5602 O   0  0  0  0  0  0  0  0  0  0  0  0
    1.7222   -0.0550    0.0002 C   0  0  0  0  0  0  0  0  0  0  0  0
    2.0292    1.0961    0.2360 O   0  0  0  0  0  0  0  0  0  0  0  0
    2.5791   -1.2490    0.2973 C   0  0  0  0  0  0  0  0  0  0  0  0
   -3.8752    0.2280   -0.3390 H   0  0  0  0  0  0  0  0  0  0  0  0
   -2.8273   -0.9447   -1.1408 H   0  0  0  0  0  0  0  0  0  0  0  0
   -3.8186   -1.4426    0.2246 H   0  0  0  0  0  0  0  0  0  0  0  0
   -2.5326   -0.0354    1.7615 H   0  0  0  0  0  0  0  0  0  0  0  0
   -1.4390   -1.1293    0.9133 H   0  0  0  0  0  0  0  0  0  0  0  0
   -1.9366    1.7529    0.0454 H   0  0  0  0  0  0  0  0  0  0  0  0
   -0.6368    1.2752    1.1420 H   0  0  0  0  0  0  0  0  0  0  0  0
   -0.9544    0.2232   -1.7104 H   0  0  0  0  0  0  0  0  0  0  0  0
    0.1630    1.5180   -1.1795 H   0  0  0  0  0  0  0  0  0  0  0  0
    2.2243   -2.1081   -0.2615 H   0  0  0  0  0  0  0  0  0  0  0  0
    2.5191   -1.4585    1.3632 H   0  0  0  0  0  0  0  0  0  0  0  0
    3.6131   -1.0220    0.0558 H   0  0  0  0  0  0  0  0  0  0  0  0
  1  2  1  0  0  0  0
  2  3  1  0  0  0  0
  3  4  1  0  0  0  0
  4  5  1  0  0  0  0
  5  6  1  0  0  0  0
  6  7  2  0  0  0  0
  6  8  1  0  0  0  0
  1  9  1  0  0  0  0
  1 10  1  0  0  0  0
  1 11  1  0  0  0  0
  2 12  1  0  0  0  0
  2 13  1  0  0  0  0
  3 14  1  0  0  0  0
  3 15  1  0  0  0  0
  4 16  1  0  0  0  0
  4 17  1  0  0  0  0
  8 18  1  0  0  0  0
  8 19  1  0  0  0  0
  8 20  1  0  0  0  0
M  END
