 xtb: 6.7.1 (edcfbbe)
          04112514343D

 14 13  0     0  0            999 V2000
    0.7641    1.7005    0.0458 C   0  0  0  0  0  0  0  0  0  0  0  0
   -0.7640    1.7005   -0.0457 C   0  0  0  0  0  0  0  0  0  0  0  0
   -1.3640    0.5252   -0.8031 C   0  0  0  0  0  0  0  0  0  0  0  0
   -1.6286   -0.9051    0.2626 Cl  0  0  0  0  0  0  0  0  0  0  0  0
    1.3641    0.5252    0.8031 C   0  0  0  0  0  0  0  0  0  0  0  0
    1.6286   -0.9051   -0.2626 Cl  0  0  0  0  0  0  0  0  0  0  0  0
    1.0630    2.6094    0.5703 H   0  0  0  0  0  0  0  0  0  0  0  0
    1.1933    1.7373   -0.9561 H   0  0  0  0  0  0  0  0  0  0  0  0
   -1.0630    2.6094   -0.5702 H   0  0  0  0  0  0  0  0  0  0  0  0
   -1.1932    1.7373    0.9561 H   0  0  0  0  0  0  0  0  0  0  0  0
   -2.3497    0.7703   -1.1929 H   0  0  0  0  0  0  0  0  0  0  0  0
   -0.7146    0.1874   -1.6086 H   0  0  0  0  0  0  0  0  0  0  0  0
    2.3498    0.7702    1.1930 H   0  0  0  0  0  0  0  0  0  0  0  0
    0.7147    0.1873    1.6086 H   0  0  0  0  0  0  0  0  0  0  0  0
  1  2  1  0  0  0  0
  2  3  1  0  0  0  0
  3  4  1  0  0  0  0
  1  5  1  0  0  0  0
  5  6  1  0  0  0  0
  1  7  1  0  0  0  0
  1  8  1  0  0  0  0
  2  9  1  0  0  0  0
  2 10  1  0  0  0  0
  3 11  1  0  0  0  0
  3 12  1  0  0  0  0
  5 13  1  0  0  0  0
  5 14  1  0  0  0  0
M  END
