 xtb: 6.7.1 (edcfbbe)
          04112516093D

 19 18  0     0  0            999 V2000
    3.3171    0.2174    0.5905 C   0  0  0  0  0  0  0  0  0  0  0  0
    2.1822    0.2635   -0.4262 C   0  0  0  0  0  0  0  0  0  0  0  0
    0.8242    0.0575    0.2417 C   0  0  0  0  0  0  0  0  0  0  0  0
   -0.3170    0.1140   -0.7832 C   0  0  0  0  0  0  0  0  0  0  0  0
   -1.6447   -0.2100   -0.1445 C   0  0  0  0  0  0  0  0  0  0  0  0
   -2.2344   -1.2463   -0.3866 O   0  0  0  0  0  0  0  0  0  0  0  0
   -2.1776    0.8062    0.8212 C   0  0  0  0  0  0  0  0  0  0  0  0
    4.2746    0.3670    0.0986 H   0  0  0  0  0  0  0  0  0  0  0  0
    3.1903    0.9947    1.3403 H   0  0  0  0  0  0  0  0  0  0  0  0
    3.3373   -0.7457    1.0956 H   0  0  0  0  0  0  0  0  0  0  0  0
    2.3378   -0.5117   -1.1791 H   0  0  0  0  0  0  0  0  0  0  0  0
    2.1902    1.2289   -0.9361 H   0  0  0  0  0  0  0  0  0  0  0  0
    0.6791    0.8298    0.9980 H   0  0  0  0  0  0  0  0  0  0  0  0
    0.8097   -0.9142    0.7405 H   0  0  0  0  0  0  0  0  0  0  0  0
   -0.3589    1.1122   -1.2202 H   0  0  0  0  0  0  0  0  0  0  0  0
   -0.1285   -0.6134   -1.5752 H   0  0  0  0  0  0  0  0  0  0  0  0
   -2.1041    1.8053    0.4029 H   0  0  0  0  0  0  0  0  0  0  0  0
   -3.2087    0.5758    1.0743 H   0  0  0  0  0  0  0  0  0  0  0  0
   -1.5784    0.7730    1.7286 H   0  0  0  0  0  0  0  0  0  0  0  0
  1  2  1  0  0  0  0
  2  3  1  0  0  0  0
  3  4  1  0  0  0  0
  4  5  1  0  0  0  0
  5  6  2  0  0  0  0
  5  7  1  0  0  0  0
  1  8  1  0  0  0  0
  1  9  1  0  0  0  0
  1 10  1  0  0  0  0
  2 11  1  0  0  0  0
  2 12  1  0  0  0  0
  3 13  1  0  0  0  0
  3 14  1  0  0  0  0
  4 15  1  0  0  0  0
  4 16  1  0  0  0  0
  7 17  1  0  0  0  0
  7 18  1  0  0  0  0
  7 19  1  0  0  0  0
M  END
