 xtb: 6.7.1 (edcfbbe)
          04112514153D

 17 16  0     0  0            999 V2000
    3.5587   -0.3930    0.0337 C   0  0  0  0  0  0  0  0  0  0  0  0
    2.0742   -0.7316    0.0845 C   0  0  0  0  0  0  0  0  0  0  0  0
    1.2125    0.4835   -0.2867 C   0  0  0  0  0  0  0  0  0  0  0  0
   -0.2290    0.1460   -0.2833 C   0  0  0  0  0  0  0  0  0  0  0  0
   -1.1764    0.7893    0.4129 C   0  0  0  0  0  0  0  0  0  0  0  0
   -2.5667    0.3853    0.3597 C   0  0  0  0  0  0  0  0  0  0  0  0
   -3.0163   -0.5375   -0.2963 O   0  0  0  0  0  0  0  0  0  0  0  0
    3.7904    0.4161    0.7221 H   0  0  0  0  0  0  0  0  0  0  0  0
    4.1531   -1.2597    0.3110 H   0  0  0  0  0  0  0  0  0  0  0  0
    3.8470   -0.0849   -0.9685 H   0  0  0  0  0  0  0  0  0  0  0  0
    1.8081   -1.0632    1.0899 H   0  0  0  0  0  0  0  0  0  0  0  0
    1.8607   -1.5506   -0.6045 H   0  0  0  0  0  0  0  0  0  0  0  0
    1.4878    0.8007   -1.2966 H   0  0  0  0  0  0  0  0  0  0  0  0
    1.4132    1.3071    0.3997 H   0  0  0  0  0  0  0  0  0  0  0  0
   -0.5329   -0.7000   -0.8885 H   0  0  0  0  0  0  0  0  0  0  0  0
   -0.9392    1.6357    1.0392 H   0  0  0  0  0  0  0  0  0  0  0  0
   -3.2486    0.9912    0.9839 H   0  0  0  0  0  0  0  0  0  0  0  0
  1  2  1  0  0  0  0
  2  3  1  0  0  0  0
  3  4  1  0  0  0  0
  4  5  2  0  0  0  0
  5  6  1  0  0  0  0
  6  7  2  0  0  0  0
  1  8  1  0  0  0  0
  1  9  1  0  0  0  0
  1 10  1  0  0  0  0
  2 11  1  0  0  0  0
  2 12  1  0  0  0  0
  3 13  1  0  0  0  0
  3 14  1  0  0  0  0
  4 15  1  0  0  0  0
  5 16  1  0  0  0  0
  6 17  1  0  0  0  0
M  END
