 xtb: 6.7.1 (edcfbbe)
          04112514233D

 23 22  0     0  0            999 V2000
    1.7115    0.6903   -1.4568 C   0  0  0  0  0  0  0  0  0  0  0  0
    2.3281   -0.2338   -0.4102 C   0  0  0  0  0  0  0  0  0  0  0  0
    2.9782    0.5780    0.7090 C   0  0  0  0  0  0  0  0  0  0  0  0
    1.3108   -1.2479    0.1347 C   0  0  0  0  0  0  0  0  0  0  0  0
    0.0689   -0.6499    0.7835 C   0  0  0  0  0  0  0  0  0  0  0  0
   -0.8704   -0.2824   -0.2379 O   0  0  0  0  0  0  0  0  0  0  0  0
   -2.0483    0.1844    0.1487 C   0  0  0  0  0  0  0  0  0  0  0  0
   -2.3572    0.3177    1.3171 O   0  0  0  0  0  0  0  0  0  0  0  0
   -2.9272    0.5268   -1.0167 C   0  0  0  0  0  0  0  0  0  0  0  0
    0.9592    1.3339   -1.0085 H   0  0  0  0  0  0  0  0  0  0  0  0
    1.2390    0.1118   -2.2463 H   0  0  0  0  0  0  0  0  0  0  0  0
    2.4790    1.3203   -1.9002 H   0  0  0  0  0  0  0  0  0  0  0  0
    3.1157   -0.8203   -0.8970 H   0  0  0  0  0  0  0  0  0  0  0  0
    3.7757    1.1968    0.3053 H   0  0  0  0  0  0  0  0  0  0  0  0
    3.4020   -0.0791    1.4644 H   0  0  0  0  0  0  0  0  0  0  0  0
    2.2566    1.2348    1.1888 H   0  0  0  0  0  0  0  0  0  0  0  0
    1.8062   -1.8713    0.8798 H   0  0  0  0  0  0  0  0  0  0  0  0
    0.9773   -1.8925   -0.6801 H   0  0  0  0  0  0  0  0  0  0  0  0
   -0.4174   -1.3801    1.4394 H   0  0  0  0  0  0  0  0  0  0  0  0
    0.2969    0.2345    1.3849 H   0  0  0  0  0  0  0  0  0  0  0  0
   -2.4847    0.1578   -1.9353 H   0  0  0  0  0  0  0  0  0  0  0  0
   -3.0360    1.6078   -1.0654 H   0  0  0  0  0  0  0  0  0  0  0  0
   -3.9132    0.0988   -0.8600 H   0  0  0  0  0  0  0  0  0  0  0  0
  1  2  1  0  0  0  0
  2  3  1  0  0  0  0
  2  4  1  0  0  0  0
  4  5  1  0  0  0  0
  5  6  1  0  0  0  0
  6  7  1  0  0  0  0
  7  8  2  0  0  0  0
  7  9  1  0  0  0  0
  1 10  1  0  0  0  0
  1 11  1  0  0  0  0
  1 12  1  0  0  0  0
  2 13  1  0  0  0  0
  3 14  1  0  0  0  0
  3 15  1  0  0  0  0
  3 16  1  0  0  0  0
  4 17  1  0  0  0  0
  4 18  1  0  0  0  0
  5 19  1  0  0  0  0
  5 20  1  0  0  0  0
  9 21  1  0  0  0  0
  9 22  1  0  0  0  0
  9 23  1  0  0  0  0
M  END
