 xtb: 6.7.1 (edcfbbe)
          04112516123D

 19 18  0     0  0            999 V2000
   -2.6513   -0.7787   -0.5638 C   0  0  0  0  0  0  0  0  0  0  0  0
   -2.2397    0.2217    0.5108 C   0  0  0  0  0  0  0  0  0  0  0  0
   -0.7270    0.2888    0.7237 C   0  0  0  0  0  0  0  0  0  0  0  0
    0.0230    0.8940   -0.4607 C   0  0  0  0  0  0  0  0  0  0  0  0
    1.5283    0.9951   -0.1863 C   0  0  0  0  0  0  0  0  0  0  0  0
    2.1349   -0.3133   -0.0462 C   0  0  0  0  0  0  0  0  0  0  0  0
    2.6188   -1.4033    0.0568 C   0  0  0  0  0  0  0  0  0  0  0  0
   -3.7351   -0.8525   -0.6144 H   0  0  0  0  0  0  0  0  0  0  0  0
   -2.2494   -1.7639   -0.3374 H   0  0  0  0  0  0  0  0  0  0  0  0
   -2.2873   -0.4754   -1.5417 H   0  0  0  0  0  0  0  0  0  0  0  0
   -2.6113    1.2141    0.2447 H   0  0  0  0  0  0  0  0  0  0  0  0
   -2.7096   -0.0644    1.4547 H   0  0  0  0  0  0  0  0  0  0  0  0
   -0.3420   -0.7159    0.9143 H   0  0  0  0  0  0  0  0  0  0  0  0
   -0.5257    0.8931    1.6124 H   0  0  0  0  0  0  0  0  0  0  0  0
   -0.3659    1.8946   -0.6632 H   0  0  0  0  0  0  0  0  0  0  0  0
   -0.1323    0.2819   -1.3503 H   0  0  0  0  0  0  0  0  0  0  0  0
    1.7004    1.5639    0.7316 H   0  0  0  0  0  0  0  0  0  0  0  0
    2.0191    1.5184   -1.0113 H   0  0  0  0  0  0  0  0  0  0  0  0
    3.0512   -2.3540    0.1513 H   0  0  0  0  0  0  0  0  0  0  0  0
  1  2  1  0  0  0  0
  2  3  1  0  0  0  0
  3  4  1  0  0  0  0
  4  5  1  0  0  0  0
  5  6  1  0  0  0  0
  6  7  3  0  0  0  0
  1  8  1  0  0  0  0
  1  9  1  0  0  0  0
  1 10  1  0  0  0  0
  2 11  1  0  0  0  0
  2 12  1  0  0  0  0
  3 13  1  0  0  0  0
  3 14  1  0  0  0  0
  4 15  1  0  0  0  0
  4 16  1  0  0  0  0
  5 17  1  0  0  0  0
  5 18  1  0  0  0  0
  7 19  1  0  0  0  0
M  END
