 xtb: 6.7.1 (edcfbbe)
          04112516113D

 17 16  0     0  0            999 V2000
   -2.8187    0.9612    0.5142 C   0  0  0  0  0  0  0  0  0  0  0  0
   -2.3288   -0.3671   -0.0511 C   0  0  0  0  0  0  0  0  0  0  0  0
   -0.8504   -0.6324    0.2313 C   0  0  0  0  0  0  0  0  0  0  0  0
    0.0743    0.3600   -0.4914 C   0  0  0  0  0  0  0  0  0  0  0  0
    1.5014   -0.0404   -0.2484 C   0  0  0  0  0  0  0  0  0  0  0  0
    2.1844   -0.6822   -1.0196 O   0  0  0  0  0  0  0  0  0  0  0  0
    1.9451    0.3541    0.9343 O   0  0  0  0  0  0  0  0  0  0  0  0
   -2.3433    1.7996    0.0129 H   0  0  0  0  0  0  0  0  0  0  0  0
   -3.8932    1.0518    0.3768 H   0  0  0  0  0  0  0  0  0  0  0  0
   -2.6023    1.0243    1.5780 H   0  0  0  0  0  0  0  0  0  0  0  0
   -2.5007   -0.3914   -1.1288 H   0  0  0  0  0  0  0  0  0  0  0  0
   -2.9083   -1.1776    0.3953 H   0  0  0  0  0  0  0  0  0  0  0  0
   -0.6658   -0.5707    1.3054 H   0  0  0  0  0  0  0  0  0  0  0  0
   -0.6007   -1.6437   -0.0986 H   0  0  0  0  0  0  0  0  0  0  0  0
   -0.0786    1.3628   -0.0965 H   0  0  0  0  0  0  0  0  0  0  0  0
   -0.1217    0.3383   -1.5629 H   0  0  0  0  0  0  0  0  0  0  0  0
    2.8604    0.0637    1.1132 H   0  0  0  0  0  0  0  0  0  0  0  0
  1  2  1  0  0  0  0
  2  3  1  0  0  0  0
  3  4  1  0  0  0  0
  4  5  1  0  0  0  0
  5  6  2  0  0  0  0
  5  7  1  0  0  0  0
  1  8  1  0  0  0  0
  1  9  1  0  0  0  0
  1 10  1  0  0  0  0
  2 11  1  0  0  0  0
  2 12  1  0  0  0  0
  3 13  1  0  0  0  0
  3 14  1  0  0  0  0
  4 15  1  0  0  0  0
  4 16  1  0  0  0  0
  7 17  1  0  0  0  0
M  END
