 xtb: 6.7.1 (edcfbbe)
          04112516293D

 20 19  0     0  0            999 V2000
   -3.3136    0.4027   -0.8550 C   0  0  0  0  0  0  0  0  0  0  0  0
   -2.8771   -0.2258    0.4640 C   0  0  0  0  0  0  0  0  0  0  0  0
   -1.4842    0.2190    0.9091 C   0  0  0  0  0  0  0  0  0  0  0  0
   -0.3882   -0.2682   -0.0284 C   0  0  0  0  0  0  0  0  0  0  0  0
    0.8790    0.0462    0.5674 O   0  0  0  0  0  0  0  0  0  0  0  0
    1.9696   -0.1116   -0.1724 C   0  0  0  0  0  0  0  0  0  0  0  0
    1.9390   -0.5010   -1.3227 O   0  0  0  0  0  0  0  0  0  0  0  0
    3.2137    0.2361    0.5872 C   0  0  0  0  0  0  0  0  0  0  0  0
   -4.3420    0.1300   -1.0771 H   0  0  0  0  0  0  0  0  0  0  0  0
   -3.2508    1.4867   -0.7992 H   0  0  0  0  0  0  0  0  0  0  0  0
   -2.6887    0.0621   -1.6763 H   0  0  0  0  0  0  0  0  0  0  0  0
   -3.5880    0.0556    1.2424 H   0  0  0  0  0  0  0  0  0  0  0  0
   -2.8965   -1.3133    0.3722 H   0  0  0  0  0  0  0  0  0  0  0  0
   -1.4418    1.3074    0.9674 H   0  0  0  0  0  0  0  0  0  0  0  0
   -1.2747   -0.1795    1.9030 H   0  0  0  0  0  0  0  0  0  0  0  0
   -0.4435   -1.3525   -0.1749 H   0  0  0  0  0  0  0  0  0  0  0  0
   -0.4363    0.2124   -1.0101 H   0  0  0  0  0  0  0  0  0  0  0  0
    3.6980   -0.6880    0.8954 H   0  0  0  0  0  0  0  0  0  0  0  0
    2.9602    0.8221    1.4638 H   0  0  0  0  0  0  0  0  0  0  0  0
    3.8965    0.7744   -0.0632 H   0  0  0  0  0  0  0  0  0  0  0  0
  1  2  1  0  0  0  0
  2  3  1  0  0  0  0
  3  4  1  0  0  0  0
  4  5  1  0  0  0  0
  5  6  1  0  0  0  0
  6  7  2  0  0  0  0
  6  8  1  0  0  0  0
  1  9  1  0  0  0  0
  1 10  1  0  0  0  0
  1 11  1  0  0  0  0
  2 12  1  0  0  0  0
  2 13  1  0  0  0  0
  3 14  1  0  0  0  0
  3 15  1  0  0  0  0
  4 16  1  0  0  0  0
  4 17  1  0  0  0  0
  8 18  1  0  0  0  0
  8 19  1  0  0  0  0
  8 20  1  0  0  0  0
M  END
