 xtb: 6.7.1 (edcfbbe)
          04112516013D

 20 19  0     0  0            999 V2000
   -2.8928   -0.4432    1.0344 C   0  0  0  0  0  0  0  0  0  0  0  0
   -2.3308   -0.5473   -0.3791 C   0  0  0  0  0  0  0  0  0  0  0  0
   -1.6385    0.7351   -0.8451 C   0  0  0  0  0  0  0  0  0  0  0  0
   -0.3136    0.9902   -0.1407 C   0  0  0  0  0  0  0  0  0  0  0  0
    0.6118   -0.0381   -0.5243 O   0  0  0  0  0  0  0  0  0  0  0  0
    1.7666   -0.1060    0.1229 C   0  0  0  0  0  0  0  0  0  0  0  0
    2.0715    0.6587    1.0171 O   0  0  0  0  0  0  0  0  0  0  0  0
    2.6237   -1.2294   -0.3776 C   0  0  0  0  0  0  0  0  0  0  0  0
   -3.4242   -1.3551    1.2945 H   0  0  0  0  0  0  0  0  0  0  0  0
   -2.1009   -0.2961    1.7647 H   0  0  0  0  0  0  0  0  0  0  0  0
   -3.5862    0.3914    1.1073 H   0  0  0  0  0  0  0  0  0  0  0  0
   -1.6196   -1.3732   -0.4332 H   0  0  0  0  0  0  0  0  0  0  0  0
   -3.1486   -0.7657   -1.0679 H   0  0  0  0  0  0  0  0  0  0  0  0
   -1.4414    0.6678   -1.9157 H   0  0  0  0  0  0  0  0  0  0  0  0
   -2.2874    1.5925   -0.6656 H   0  0  0  0  0  0  0  0  0  0  0  0
    0.1085    1.9576   -0.4321 H   0  0  0  0  0  0  0  0  0  0  0  0
   -0.4143    0.9814    0.9487 H   0  0  0  0  0  0  0  0  0  0  0  0
    3.6089   -0.8436   -0.6248 H   0  0  0  0  0  0  0  0  0  0  0  0
    2.1617   -1.6901   -1.2437 H   0  0  0  0  0  0  0  0  0  0  0  0
    2.7426   -1.9606    0.4184 H   0  0  0  0  0  0  0  0  0  0  0  0
  1  2  1  0  0  0  0
  2  3  1  0  0  0  0
  3  4  1  0  0  0  0
  4  5  1  0  0  0  0
  5  6  1  0  0  0  0
  6  7  2  0  0  0  0
  6  8  1  0  0  0  0
  1  9  1  0  0  0  0
  1 10  1  0  0  0  0
  1 11  1  0  0  0  0
  2 12  1  0  0  0  0
  2 13  1  0  0  0  0
  3 14  1  0  0  0  0
  3 15  1  0  0  0  0
  4 16  1  0  0  0  0
  4 17  1  0  0  0  0
  8 18  1  0  0  0  0
  8 19  1  0  0  0  0
  8 20  1  0  0  0  0
M  END
