 xtb: 6.7.1 (edcfbbe)
          04112514053D

 17 16  0     0  0            999 V2000
    2.9339   -1.0349    0.4025 C   0  0  0  0  0  0  0  0  0  0  0  0
    2.3884   -0.0233   -0.5982 C   0  0  0  0  0  0  0  0  0  0  0  0
    1.3392    0.9270    0.0069 C   0  0  0  0  0  0  0  0  0  0  0  0
    0.0902    0.2176    0.3747 C   0  0  0  0  0  0  0  0  0  0  0  0
   -1.1092    0.4535   -0.1711 C   0  0  0  0  0  0  0  0  0  0  0  0
   -2.2878   -0.2828    0.2210 C   0  0  0  0  0  0  0  0  0  0  0  0
   -3.4056   -0.1222   -0.2356 O   0  0  0  0  0  0  0  0  0  0  0  0
    3.7342   -1.6127   -0.0532 H   0  0  0  0  0  0  0  0  0  0  0  0
    3.3342   -0.5294    1.2782 H   0  0  0  0  0  0  0  0  0  0  0  0
    2.1621   -1.7287    0.7242 H   0  0  0  0  0  0  0  0  0  0  0  0
    1.9459   -0.5469   -1.4475 H   0  0  0  0  0  0  0  0  0  0  0  0
    3.2125    0.5850   -0.9738 H   0  0  0  0  0  0  0  0  0  0  0  0
    1.1186    1.7195   -0.7087 H   0  0  0  0  0  0  0  0  0  0  0  0
    1.7648    1.3762    0.9075 H   0  0  0  0  0  0  0  0  0  0  0  0
    0.1775   -0.5499    1.1327 H   0  0  0  0  0  0  0  0  0  0  0  0
   -1.2470    1.2098   -0.9311 H   0  0  0  0  0  0  0  0  0  0  0  0
   -2.1198   -1.0477    1.0023 H   0  0  0  0  0  0  0  0  0  0  0  0
  1  2  1  0  0  0  0
  2  3  1  0  0  0  0
  3  4  1  0  0  0  0
  4  5  2  0  0  0  0
  5  6  1  0  0  0  0
  6  7  2  0  0  0  0
  1  8  1  0  0  0  0
  1  9  1  0  0  0  0
  1 10  1  0  0  0  0
  2 11  1  0  0  0  0
  2 12  1  0  0  0  0
  3 13  1  0  0  0  0
  3 14  1  0  0  0  0
  4 15  1  0  0  0  0
  5 16  1  0  0  0  0
  6 17  1  0  0  0  0
M  END
