 xtb: 6.7.1 (edcfbbe)
          04112516153D

 26 25  0     0  0            999 V2000
    1.2521    0.3764   -1.5563 C   0  0  0  0  0  0  0  0  0  0  0  0
    1.5317    0.1061   -0.0795 C   0  0  0  0  0  0  0  0  0  0  0  0
    1.4670   -1.3831    0.2528 C   0  0  0  0  0  0  0  0  0  0  0  0
    0.5648    0.8730    0.7819 C   0  0  0  0  0  0  0  0  0  0  0  0
   -0.6897    0.8021    0.8606 N   0  0  0  0  0  0  0  0  0  0  0  0
   -1.3370   -0.1308    0.0261 O   0  0  0  0  0  0  0  0  0  0  0  0
   -2.7091   -0.1475    0.1794 C   0  0  0  0  0  0  0  0  0  0  0  0
   -3.3148    0.5577    0.9537 O   0  0  0  0  0  0  0  0  0  0  0  0
   -3.2268   -1.0518   -0.6528 N   0  0  0  0  0  0  0  0  0  0  0  0
   -4.6468   -1.3161   -0.7345 C   0  0  0  0  0  0  0  0  0  0  0  0
    3.1973    0.7926    0.3897 S   0  0  0  0  0  0  0  0  0  0  0  0
    4.3502   -0.1513   -0.6515 C   0  0  0  0  0  0  0  0  0  0  0  0
    1.4145    1.4286   -1.7812 H   0  0  0  0  0  0  0  0  0  0  0  0
    1.9028   -0.2280   -2.1825 H   0  0  0  0  0  0  0  0  0  0  0  0
    0.2196    0.1252   -1.7860 H   0  0  0  0  0  0  0  0  0  0  0  0
    0.4469   -1.7406    0.1358 H   0  0  0  0  0  0  0  0  0  0  0  0
    1.7805   -1.5510    1.2811 H   0  0  0  0  0  0  0  0  0  0  0  0
    2.1108   -1.9493   -0.4149 H   0  0  0  0  0  0  0  0  0  0  0  0
    0.9758    1.6137    1.4559 H   0  0  0  0  0  0  0  0  0  0  0  0
   -2.6064   -1.5768   -1.2497 H   0  0  0  0  0  0  0  0  0  0  0  0
   -4.8499   -2.3552   -0.4799 H   0  0  0  0  0  0  0  0  0  0  0  0
   -5.0095   -1.1076   -1.7400 H   0  0  0  0  0  0  0  0  0  0  0  0
   -5.1492   -0.6630   -0.0243 H   0  0  0  0  0  0  0  0  0  0  0  0
    4.2938   -1.2062   -0.4062 H   0  0  0  0  0  0  0  0  0  0  0  0
    5.3340    0.2328   -0.4035 H   0  0  0  0  0  0  0  0  0  0  0  0
    4.1374    0.0293   -1.6995 H   0  0  0  0  0  0  0  0  0  0  0  0
  1  2  1  0  0  0  0
  2  3  1  0  0  0  0
  2  4  1  0  0  0  0
  4  5  2  0  0  0  0
  5  6  1  0  0  0  0
  6  7  1  0  0  0  0
  7  8  2  0  0  0  0
  7  9  4  0  0  0  0
  9 10  1  0  0  0  0
  2 11  1  0  0  0  0
 11 12  1  0  0  0  0
  1 13  1  0  0  0  0
  1 14  1  0  0  0  0
  1 15  1  0  0  0  0
  3 16  1  0  0  0  0
  3 17  1  0  0  0  0
  3 18  1  0  0  0  0
  4 19  1  0  0  0  0
  9 20  1  0  0  0  0
 10 21  1  0  0  0  0
 10 22  1  0  0  0  0
 10 23  1  0  0  0  0
 12 24  1  0  0  0  0
 12 25  1  0  0  0  0
 12 26  1  0  0  0  0
M  END
