 xtb: 6.7.1 (edcfbbe)
          04112516293D

 20 19  0     0  0            999 V2000
   -3.0471   -0.6050   -0.6811 C   0  0  0  0  0  0  0  0  0  0  0  0
   -2.3542   -0.4265    0.6652 C   0  0  0  0  0  0  0  0  0  0  0  0
   -1.5897    0.8941    0.7772 C   0  0  0  0  0  0  0  0  0  0  0  0
   -0.3421    0.9407   -0.0930 C   0  0  0  0  0  0  0  0  0  0  0  0
    0.5912   -0.0359    0.3931 O   0  0  0  0  0  0  0  0  0  0  0  0
    1.7263   -0.1885   -0.2744 C   0  0  0  0  0  0  0  0  0  0  0  0
    1.9971    0.4476   -1.2739 O   0  0  0  0  0  0  0  0  0  0  0  0
    2.6160   -1.2152    0.3591 C   0  0  0  0  0  0  0  0  0  0  0  0
   -2.3254   -0.6602   -1.4923 H   0  0  0  0  0  0  0  0  0  0  0  0
   -3.6270   -1.5245   -0.6848 H   0  0  0  0  0  0  0  0  0  0  0  0
   -3.7201    0.2267   -0.8761 H   0  0  0  0  0  0  0  0  0  0  0  0
   -3.1066   -0.4545    1.4551 H   0  0  0  0  0  0  0  0  0  0  0  0
   -1.6609   -1.2519    0.8348 H   0  0  0  0  0  0  0  0  0  0  0  0
   -2.2358    1.7220    0.4843 H   0  0  0  0  0  0  0  0  0  0  0  0
   -1.2832    1.0439    1.8132 H   0  0  0  0  0  0  0  0  0  0  0  0
   -0.5613    0.7217   -1.1422 H   0  0  0  0  0  0  0  0  0  0  0  0
    0.1350    1.9254   -0.0484 H   0  0  0  0  0  0  0  0  0  0  0  0
    2.0474   -1.8204    1.0563 H   0  0  0  0  0  0  0  0  0  0  0  0
    3.4122   -0.6989    0.8910 H   0  0  0  0  0  0  0  0  0  0  0  0
    3.0698   -1.8276   -0.4145 H   0  0  0  0  0  0  0  0  0  0  0  0
  1  2  1  0  0  0  0
  2  3  1  0  0  0  0
  3  4  1  0  0  0  0
  4  5  1  0  0  0  0
  5  6  1  0  0  0  0
  6  7  2  0  0  0  0
  6  8  1  0  0  0  0
  1  9  1  0  0  0  0
  1 10  1  0  0  0  0
  1 11  1  0  0  0  0
  2 12  1  0  0  0  0
  2 13  1  0  0  0  0
  3 14  1  0  0  0  0
  3 15  1  0  0  0  0
  4 16  1  0  0  0  0
  4 17  1  0  0  0  0
  8 18  1  0  0  0  0
  8 19  1  0  0  0  0
  8 20  1  0  0  0  0
M  END
