 xtb: 6.7.1 (edcfbbe)
          04112516093D

 19 18  0     0  0            999 V2000
    2.8783    0.5378   -0.7121 C   0  0  0  0  0  0  0  0  0  0  0  0
    2.2672    0.0463    0.5953 C   0  0  0  0  0  0  0  0  0  0  0  0
    0.7699    0.3382    0.7050 C   0  0  0  0  0  0  0  0  0  0  0  0
   -0.0517   -0.4591   -0.3137 C   0  0  0  0  0  0  0  0  0  0  0  0
   -1.5401   -0.3139   -0.1279 C   0  0  0  0  0  0  0  0  0  0  0  0
   -2.2719   -1.2842   -0.0567 O   0  0  0  0  0  0  0  0  0  0  0  0
   -2.0662    1.0882   -0.0450 C   0  0  0  0  0  0  0  0  0  0  0  0
    2.6843    1.5993   -0.8478 H   0  0  0  0  0  0  0  0  0  0  0  0
    3.9546    0.3855   -0.7030 H   0  0  0  0  0  0  0  0  0  0  0  0
    2.4702   -0.0019   -1.5625 H   0  0  0  0  0  0  0  0  0  0  0  0
    2.7733    0.5382    1.4286 H   0  0  0  0  0  0  0  0  0  0  0  0
    2.4359   -1.0280    0.6951 H   0  0  0  0  0  0  0  0  0  0  0  0
    0.6064    1.4063    0.5606 H   0  0  0  0  0  0  0  0  0  0  0  0
    0.4342    0.0739    1.7102 H   0  0  0  0  0  0  0  0  0  0  0  0
    0.1813   -0.1113   -1.3222 H   0  0  0  0  0  0  0  0  0  0  0  0
    0.2003   -1.5198   -0.2505 H   0  0  0  0  0  0  0  0  0  0  0  0
   -3.1418    1.0909   -0.1996 H   0  0  0  0  0  0  0  0  0  0  0  0
   -1.8586    1.4759    0.9505 H   0  0  0  0  0  0  0  0  0  0  0  0
   -1.5751    1.7282   -0.7710 H   0  0  0  0  0  0  0  0  0  0  0  0
  1  2  1  0  0  0  0
  2  3  1  0  0  0  0
  3  4  1  0  0  0  0
  4  5  1  0  0  0  0
  5  6  2  0  0  0  0
  5  7  1  0  0  0  0
  1  8  1  0  0  0  0
  1  9  1  0  0  0  0
  1 10  1  0  0  0  0
  2 11  1  0  0  0  0
  2 12  1  0  0  0  0
  3 13  1  0  0  0  0
  3 14  1  0  0  0  0
  4 15  1  0  0  0  0
  4 16  1  0  0  0  0
  7 17  1  0  0  0  0
  7 18  1  0  0  0  0
  7 19  1  0  0  0  0
M  END
