 xtb: 6.7.1 (edcfbbe)
          04112516333D

 17 16  0     0  0            999 V2000
   -4.6855   -0.6957   -0.3354 C   0  0  0  0  0  0  0  0  0  0  0  0
   -3.3467   -0.6756    0.3925 C   0  0  0  0  0  0  0  0  0  0  0  0
   -2.2132   -0.2246   -0.5267 C   0  0  0  0  0  0  0  0  0  0  0  0
   -0.8705   -0.2040    0.2038 C   0  0  0  0  0  0  0  0  0  0  0  0
    0.2337    0.2457   -0.7317 C   0  0  0  0  0  0  0  0  0  0  0  0
    1.9803    0.2828    0.1857 Br  0  0  0  0  0  0  0  0  0  0  0  0
   -5.4777   -1.0186    0.3349 H   0  0  0  0  0  0  0  0  0  0  0  0
   -4.6501   -1.3794   -1.1804 H   0  0  0  0  0  0  0  0  0  0  0  0
   -4.9325    0.2960   -0.7072 H   0  0  0  0  0  0  0  0  0  0  0  0
   -3.4081    0.0004    1.2478 H   0  0  0  0  0  0  0  0  0  0  0  0
   -3.1256   -1.6743    0.7744 H   0  0  0  0  0  0  0  0  0  0  0  0
   -2.1513   -0.9015   -1.3816 H   0  0  0  0  0  0  0  0  0  0  0  0
   -2.4344    0.7745   -0.9084 H   0  0  0  0  0  0  0  0  0  0  0  0
   -0.9274    0.4747    1.0578 H   0  0  0  0  0  0  0  0  0  0  0  0
   -0.6446   -1.2023    0.5853 H   0  0  0  0  0  0  0  0  0  0  0  0
    0.0732    1.2594   -1.0945 H   0  0  0  0  0  0  0  0  0  0  0  0
    0.3594   -0.4354   -1.5715 H   0  0  0  0  0  0  0  0  0  0  0  0
  1  2  1  0  0  0  0
  2  3  1  0  0  0  0
  3  4  1  0  0  0  0
  4  5  1  0  0  0  0
  5  6  1  0  0  0  0
  1  7  1  0  0  0  0
  1  8  1  0  0  0  0
  1  9  1  0  0  0  0
  2 10  1  0  0  0  0
  2 11  1  0  0  0  0
  3 12  1  0  0  0  0
  3 13  1  0  0  0  0
  4 14  1  0  0  0  0
  4 15  1  0  0  0  0
  5 16  1  0  0  0  0
  5 17  1  0  0  0  0
M  END
