 xtb: 6.7.1 (edcfbbe)
          04112514233D

 23 22  0     0  0            999 V2000
    3.0996    0.8471    0.5983 C   0  0  0  0  0  0  0  0  0  0  0  0
    1.6863    0.4583    0.1664 C   0  0  0  0  0  0  0  0  0  0  0  0
    1.5997    0.4387   -1.3595 C   0  0  0  0  0  0  0  0  0  0  0  0
    1.3001   -0.9068    0.7605 C   0  0  0  0  0  0  0  0  0  0  0  0
   -0.1841   -1.0305    1.0935 C   0  0  0  0  0  0  0  0  0  0  0  0
   -1.0000   -0.9340   -0.0827 O   0  0  0  0  0  0  0  0  0  0  0  0
   -1.8343    0.0897   -0.2129 C   0  0  0  0  0  0  0  0  0  0  0  0
   -1.9746    0.9597    0.6229 O   0  0  0  0  0  0  0  0  0  0  0  0
   -2.5744    0.0328   -1.5163 C   0  0  0  0  0  0  0  0  0  0  0  0
    3.1607    0.9397    1.6798 H   0  0  0  0  0  0  0  0  0  0  0  0
    3.3807    1.8002    0.1570 H   0  0  0  0  0  0  0  0  0  0  0  0
    3.8128    0.0934    0.2727 H   0  0  0  0  0  0  0  0  0  0  0  0
    0.9885    1.2140    0.5472 H   0  0  0  0  0  0  0  0  0  0  0  0
    2.3497   -0.2358   -1.7672 H   0  0  0  0  0  0  0  0  0  0  0  0
    1.7768    1.4333   -1.7625 H   0  0  0  0  0  0  0  0  0  0  0  0
    0.6207    0.1032   -1.6902 H   0  0  0  0  0  0  0  0  0  0  0  0
    1.8402   -1.0670    1.6941 H   0  0  0  0  0  0  0  0  0  0  0  0
    1.5778   -1.6998    0.0654 H   0  0  0  0  0  0  0  0  0  0  0  0
   -0.3962   -2.0116    1.5254 H   0  0  0  0  0  0  0  0  0  0  0  0
   -0.4926   -0.2457    1.7915 H   0  0  0  0  0  0  0  0  0  0  0  0
   -2.3865   -0.9145   -2.0098 H   0  0  0  0  0  0  0  0  0  0  0  0
   -2.2360    0.8543   -2.1442 H   0  0  0  0  0  0  0  0  0  0  0  0
   -3.6360    0.1702   -1.3315 H   0  0  0  0  0  0  0  0  0  0  0  0
  1  2  1  0  0  0  0
  2  3  1  0  0  0  0
  2  4  1  0  0  0  0
  4  5  1  0  0  0  0
  5  6  1  0  0  0  0
  6  7  1  0  0  0  0
  7  8  2  0  0  0  0
  7  9  1  0  0  0  0
  1 10  1  0  0  0  0
  1 11  1  0  0  0  0
  1 12  1  0  0  0  0
  2 13  1  0  0  0  0
  3 14  1  0  0  0  0
  3 15  1  0  0  0  0
  3 16  1  0  0  0  0
  4 17  1  0  0  0  0
  4 18  1  0  0  0  0
  5 19  1  0  0  0  0
  5 20  1  0  0  0  0
  9 21  1  0  0  0  0
  9 22  1  0  0  0  0
  9 23  1  0  0  0  0
M  END
