 xtb: 6.7.1 (edcfbbe)
          04112516253D

 17 16  0     0  0            999 V2000
   -3.3543    0.2167   -0.3179 C   0  0  0  0  0  0  0  0  0  0  0  0
   -2.1590    0.2387    0.6275 C   0  0  0  0  0  0  0  0  0  0  0  0
   -0.8494    0.0142   -0.1244 C   0  0  0  0  0  0  0  0  0  0  0  0
    0.3565    0.0402    0.8269 C   0  0  0  0  0  0  0  0  0  0  0  0
    1.6116   -0.1996    0.0365 C   0  0  0  0  0  0  0  0  0  0  0  0
    2.1579   -1.2758   -0.0896 O   0  0  0  0  0  0  0  0  0  0  0  0
    2.0568    0.8971   -0.5548 O   0  0  0  0  0  0  0  0  0  0  0  0
   -3.4192   -0.7414   -0.8282 H   0  0  0  0  0  0  0  0  0  0  0  0
   -4.2775    0.3760    0.2331 H   0  0  0  0  0  0  0  0  0  0  0  0
   -3.2617    0.9985   -1.0680 H   0  0  0  0  0  0  0  0  0  0  0  0
   -2.2790   -0.5393    1.3837 H   0  0  0  0  0  0  0  0  0  0  0  0
   -2.1192    1.2009    1.1410 H   0  0  0  0  0  0  0  0  0  0  0  0
   -0.8809   -0.9514   -0.6343 H   0  0  0  0  0  0  0  0  0  0  0  0
   -0.7239    0.7921   -0.8802 H   0  0  0  0  0  0  0  0  0  0  0  0
    0.2555   -0.7436    1.5768 H   0  0  0  0  0  0  0  0  0  0  0  0
    0.4207    1.0160    1.3071 H   0  0  0  0  0  0  0  0  0  0  0  0
    2.8512    0.7396   -1.1009 H   0  0  0  0  0  0  0  0  0  0  0  0
  1  2  1  0  0  0  0
  2  3  1  0  0  0  0
  3  4  1  0  0  0  0
  4  5  1  0  0  0  0
  5  6  2  0  0  0  0
  5  7  1  0  0  0  0
  1  8  1  0  0  0  0
  1  9  1  0  0  0  0
  1 10  1  0  0  0  0
  2 11  1  0  0  0  0
  2 12  1  0  0  0  0
  3 13  1  0  0  0  0
  3 14  1  0  0  0  0
  4 15  1  0  0  0  0
  4 16  1  0  0  0  0
  7 17  1  0  0  0  0
M  END
