 xtb: 6.7.1 (edcfbbe)
          04112516193D

 13 13  0     0  0            999 V2000
    2.1541    1.0951   -0.1627 C   0  0  0  0  0  0  0  0  0  0  0  0
    1.8454   -0.2631    0.3519 C   0  0  0  0  0  0  0  0  0  0  0  0
    2.6680   -1.0615    0.7389 O   0  0  0  0  0  0  0  0  0  0  0  0
    0.3690   -0.6469    0.3761 C   0  0  0  0  0  0  0  0  0  0  0  0
   -0.4394    0.4464   -0.0295 O   0  0  0  0  0  0  0  0  0  0  0  0
   -1.7586    0.1839   -0.2641 N   0  0  0  0  0  0  0  0  0  0  0  0
   -2.1318   -0.9358   -0.1100 O   0  0  0  0  0  0  0  0  0  0  0  0
   -2.3820    1.1368   -0.6030 O   0  0  0  0  0  0  0  0  0  0  0  0
    3.2256    1.2681   -0.1489 H   0  0  0  0  0  0  0  0  0  0  0  0
    1.7660    1.1962   -1.1735 H   0  0  0  0  0  0  0  0  0  0  0  0
    1.6411    1.8340    0.4489 H   0  0  0  0  0  0  0  0  0  0  0  0
    0.0999   -0.9679    1.3886 H   0  0  0  0  0  0  0  0  0  0  0  0
    0.2171   -1.5040   -0.2908 H   0  0  0  0  0  0  0  0  0  0  0  0
  1  2  1  0  0  0  0
  2  3  2  0  0  0  0
  2  4  1  0  0  0  0
  4  5  1  0  0  0  0
  5  6  1  0  0  0  0
  6  7  4  0  0  0  0
  6  8  4  0  0  0  0
  7  8  1  0  0  0  0
  1  9  1  0  0  0  0
  1 10  1  0  0  0  0
  1 11  1  0  0  0  0
  4 12  1  0  0  0  0
  4 13  1  0  0  0  0
M  END
