 xtb: 6.7.1 (edcfbbe)
          04112516113D

 17 16  0     0  0            999 V2000
   -3.1165   -1.2351    0.2828 C   0  0  0  0  0  0  0  0  0  0  0  0
   -3.3667    0.2345   -0.0354 C   0  0  0  0  0  0  0  0  0  0  0  0
   -2.2704    1.1768    0.4654 C   0  0  0  0  0  0  0  0  0  0  0  0
   -0.9033    0.9556   -0.2006 C   0  0  0  0  0  0  0  0  0  0  0  0
    0.0048    0.1047    0.6666 C   0  0  0  0  0  0  0  0  0  0  0  0
    1.7454   -0.2042   -0.2166 Br  0  0  0  0  0  0  0  0  0  0  0  0
   -2.2591   -1.6160   -0.2663 H   0  0  0  0  0  0  0  0  0  0  0  0
   -3.9817   -1.8298   -0.0001 H   0  0  0  0  0  0  0  0  0  0  0  0
   -2.9430   -1.3723    1.3481 H   0  0  0  0  0  0  0  0  0  0  0  0
   -3.4762    0.3555   -1.1152 H   0  0  0  0  0  0  0  0  0  0  0  0
   -4.3088    0.5379    0.4261 H   0  0  0  0  0  0  0  0  0  0  0  0
   -2.5926    2.1996    0.2657 H   0  0  0  0  0  0  0  0  0  0  0  0
   -2.1699    1.0718    1.5476 H   0  0  0  0  0  0  0  0  0  0  0  0
   -1.0384    0.4790   -1.1734 H   0  0  0  0  0  0  0  0  0  0  0  0
   -0.4152    1.9172   -0.3722 H   0  0  0  0  0  0  0  0  0  0  0  0
   -0.4028   -0.8851    0.8562 H   0  0  0  0  0  0  0  0  0  0  0  0
    0.2418    0.5973    1.6081 H   0  0  0  0  0  0  0  0  0  0  0  0
  1  2  1  0  0  0  0
  2  3  1  0  0  0  0
  3  4  1  0  0  0  0
  4  5  1  0  0  0  0
  5  6  1  0  0  0  0
  1  7  1  0  0  0  0
  1  8  1  0  0  0  0
  1  9  1  0  0  0  0
  2 10  1  0  0  0  0
  2 11  1  0  0  0  0
  3 12  1  0  0  0  0
  3 13  1  0  0  0  0
  4 14  1  0  0  0  0
  4 15  1  0  0  0  0
  5 16  1  0  0  0  0
  5 17  1  0  0  0  0
M  END
