 xtb: 6.7.1 (edcfbbe)
          04112516053D

 26 26  0     0  0            999 V2000
   -3.4379    0.0969   -1.2858 C   0  0  0  0  0  0  0  0  0  0  0  0
   -3.1351   -0.9692   -0.2408 C   0  0  0  0  0  0  0  0  0  0  0  0
   -2.4146   -0.3892    0.9843 C   0  0  0  0  0  0  0  0  0  0  0  0
   -1.0561    0.1436    0.6268 C   0  0  0  0  0  0  0  0  0  0  0  0
   -0.8306    1.4988    0.4679 C   0  0  0  0  0  0  0  0  0  0  0  0
    0.4229    1.9663    0.1031 C   0  0  0  0  0  0  0  0  0  0  0  0
    1.4696    1.0888   -0.1099 C   0  0  0  0  0  0  0  0  0  0  0  0
    1.2542   -0.2929    0.0502 C   0  0  0  0  0  0  0  0  0  0  0  0
   -0.0024   -0.7427    0.4152 C   0  0  0  0  0  0  0  0  0  0  0  0
    2.3442   -1.0906   -0.1752 O   0  0  0  0  0  0  0  0  0  0  0  0
    2.1931   -2.4873   -0.0282 C   0  0  0  0  0  0  0  0  0  0  0  0
    2.7199    1.5016   -0.4697 O   0  0  0  0  0  0  0  0  0  0  0  0
   -4.0734    0.8728   -0.8649 H   0  0  0  0  0  0  0  0  0  0  0  0
   -2.5167    0.5586   -1.6343 H   0  0  0  0  0  0  0  0  0  0  0  0
   -3.9495   -0.3415   -2.1391 H   0  0  0  0  0  0  0  0  0  0  0  0
   -2.5125   -1.7466   -0.6879 H   0  0  0  0  0  0  0  0  0  0  0  0
   -4.0682   -1.4323    0.0861 H   0  0  0  0  0  0  0  0  0  0  0  0
   -2.3110   -1.1750    1.7354 H   0  0  0  0  0  0  0  0  0  0  0  0
   -3.0223    0.4113    1.4088 H   0  0  0  0  0  0  0  0  0  0  0  0
   -1.6324    2.2029    0.6282 H   0  0  0  0  0  0  0  0  0  0  0  0
    0.5872    3.0271   -0.0173 H   0  0  0  0  0  0  0  0  0  0  0  0
   -0.1817   -1.7983    0.5443 H   0  0  0  0  0  0  0  0  0  0  0  0
    1.9082   -2.7491    0.9946 H   0  0  0  0  0  0  0  0  0  0  0  0
    3.1720   -2.9046   -0.2534 H   0  0  0  0  0  0  0  0  0  0  0  0
    1.4547   -2.8819   -0.7318 H   0  0  0  0  0  0  0  0  0  0  0  0
    2.7391    2.4680   -0.5432 H   0  0  0  0  0  0  0  0  0  0  0  0
  1  2  1  0  0  0  0
  2  3  1  0  0  0  0
  3  4  1  0  0  0  0
  4  5  4  0  0  0  0
  5  6  4  0  0  0  0
  6  7  4  0  0  0  0
  7  8  4  0  0  0  0
  4  9  4  0  0  0  0
  8  9  4  0  0  0  0
  8 10  1  0  0  0  0
 10 11  1  0  0  0  0
  7 12  1  0  0  0  0
  1 13  1  0  0  0  0
  1 14  1  0  0  0  0
  1 15  1  0  0  0  0
  2 16  1  0  0  0  0
  2 17  1  0  0  0  0
  3 18  1  0  0  0  0
  3 19  1  0  0  0  0
  5 20  1  0  0  0  0
  6 21  1  0  0  0  0
  9 22  1  0  0  0  0
 11 23  1  0  0  0  0
 11 24  1  0  0  0  0
 11 25  1  0  0  0  0
 12 26  1  0  0  0  0
M  END
