 xtb: 6.7.1 (edcfbbe)
          04112516133D

 33 34  0     0  0            999 V2000
   -4.8038    1.0393   -0.6788 C   0  0  0  0  0  0  0  0  0  0  0  0
   -3.6630    0.2339   -0.1298 C   0  0  0  0  0  0  0  0  0  0  0  0
   -3.9310   -0.9189    0.5990 C   0  0  0  0  0  0  0  0  0  0  0  0
   -2.9076   -1.6742    1.1409 C   0  0  0  0  0  0  0  0  0  0  0  0
   -1.5946   -1.2857    0.9616 C   0  0  0  0  0  0  0  0  0  0  0  0
   -1.3055   -0.1478    0.2141 C   0  0  0  0  0  0  0  0  0  0  0  0
   -2.3389    0.6214   -0.3388 C   0  0  0  0  0  0  0  0  0  0  0  0
   -1.9843    1.8445   -1.1328 C   0  0  0  0  0  0  0  0  0  0  0  0
    0.0112    0.2968    0.0550 N   0  0  0  0  0  0  0  0  0  0  0  0
    1.1269   -0.4477   -0.1296 C   0  0  0  0  0  0  0  0  0  0  0  0
    1.0538   -1.7942   -0.5306 C   0  0  0  0  0  0  0  0  0  0  0  0
    2.1876   -2.5422   -0.7268 C   0  0  0  0  0  0  0  0  0  0  0  0
    3.4514   -1.9830   -0.5380 C   0  0  0  0  0  0  0  0  0  0  0  0
    3.5546   -0.6609   -0.1837 C   0  0  0  0  0  0  0  0  0  0  0  0
    2.4152    0.1325    0.0178 C   0  0  0  0  0  0  0  0  0  0  0  0
    2.5870    1.5358    0.3621 C   0  0  0  0  0  0  0  0  0  0  0  0
    1.6817    2.3621    0.4707 O   0  0  0  0  0  0  0  0  0  0  0  0
    3.8533    1.9081    0.5602 O   0  0  0  0  0  0  0  0  0  0  0  0
   -5.7515    0.6250   -0.3459 H   0  0  0  0  0  0  0  0  0  0  0  0
   -4.7408    2.0728   -0.3444 H   0  0  0  0  0  0  0  0  0  0  0  0
   -4.7923    1.0317   -1.7679 H   0  0  0  0  0  0  0  0  0  0  0  0
   -4.9562   -1.2222    0.7522 H   0  0  0  0  0  0  0  0  0  0  0  0
   -3.1325   -2.5580    1.7184 H   0  0  0  0  0  0  0  0  0  0  0  0
   -0.7917   -1.8430    1.4188 H   0  0  0  0  0  0  0  0  0  0  0  0
   -1.7482    2.6744   -0.4653 H   0  0  0  0  0  0  0  0  0  0  0  0
   -1.1082    1.6537   -1.7498 H   0  0  0  0  0  0  0  0  0  0  0  0
   -2.8010    2.1490   -1.7777 H   0  0  0  0  0  0  0  0  0  0  0  0
    0.1716    1.2921    0.1782 H   0  0  0  0  0  0  0  0  0  0  0  0
    0.0823   -2.2266   -0.7097 H   0  0  0  0  0  0  0  0  0  0  0  0
    2.0983   -3.5713   -1.0400 H   0  0  0  0  0  0  0  0  0  0  0  0
    4.3375   -2.5788   -0.6863 H   0  0  0  0  0  0  0  0  0  0  0  0
    4.5230   -0.2024   -0.0601 H   0  0  0  0  0  0  0  0  0  0  0  0
    3.9094    2.8566    0.7806 H   0  0  0  0  0  0  0  0  0  0  0  0
  1  2  1  0  0  0  0
  2  3  4  0  0  0  0
  3  4  4  0  0  0  0
  4  5  4  0  0  0  0
  5  6  4  0  0  0  0
  2  7  4  0  0  0  0
  6  7  4  0  0  0  0
  7  8  1  0  0  0  0
  6  9  1  0  0  0  0
  9 10  4  0  0  0  0
 10 11  4  0  0  0  0
 11 12  2  0  0  0  0
 12 13  4  0  0  0  0
 13 14  4  0  0  0  0
 10 15  4  0  0  0  0
 14 15  4  0  0  0  0
 15 16  1  0  0  0  0
 16 17  2  0  0  0  0
 16 18  1  0  0  0  0
  1 19  1  0  0  0  0
  1 20  1  0  0  0  0
  1 21  1  0  0  0  0
  3 22  1  0  0  0  0
  4 23  1  0  0  0  0
  5 24  1  0  0  0  0
  8 25  1  0  0  0  0
  8 26  1  0  0  0  0
  8 27  1  0  0  0  0
  9 28  1  0  0  0  0
 11 29  1  0  0  0  0
 12 30  1  0  0  0  0
 13 31  1  0  0  0  0
 14 32  1  0  0  0  0
 18 33  1  0  0  0  0
M  END
