 xtb: 6.7.1 (edcfbbe)
          04112516113D

 17 16  0     0  0            999 V2000
   -3.6730   -0.9127    0.1476 C   0  0  0  0  0  0  0  0  0  0  0  0
   -2.5734    0.0721    0.5275 C   0  0  0  0  0  0  0  0  0  0  0  0
   -1.7029    0.4230   -0.6782 C   0  0  0  0  0  0  0  0  0  0  0  0
   -0.6708    1.5145   -0.3950 C   0  0  0  0  0  0  0  0  0  0  0  0
    0.3966    1.1185    0.6065 C   0  0  0  0  0  0  0  0  0  0  0  0
    1.4967   -0.3877   -0.0425 Br  0  0  0  0  0  0  0  0  0  0  0  0
   -4.2791   -1.1616    1.0150 H   0  0  0  0  0  0  0  0  0  0  0  0
   -3.2413   -1.8306   -0.2450 H   0  0  0  0  0  0  0  0  0  0  0  0
   -4.3210   -0.4860   -0.6145 H   0  0  0  0  0  0  0  0  0  0  0  0
   -3.0241    0.9837    0.9268 H   0  0  0  0  0  0  0  0  0  0  0  0
   -1.9624   -0.3732    1.3151 H   0  0  0  0  0  0  0  0  0  0  0  0
   -1.1923   -0.4768   -1.0297 H   0  0  0  0  0  0  0  0  0  0  0  0
   -2.3492    0.7687   -1.4876 H   0  0  0  0  0  0  0  0  0  0  0  0
   -0.1905    1.8020   -1.3330 H   0  0  0  0  0  0  0  0  0  0  0  0
   -1.1756    2.3959    0.0086 H   0  0  0  0  0  0  0  0  0  0  0  0
   -0.0249    0.7828    1.5510 H   0  0  0  0  0  0  0  0  0  0  0  0
    1.1009    1.9296    0.7816 H   0  0  0  0  0  0  0  0  0  0  0  0
  1  2  1  0  0  0  0
  2  3  1  0  0  0  0
  3  4  1  0  0  0  0
  4  5  1  0  0  0  0
  5  6  1  0  0  0  0
  1  7  1  0  0  0  0
  1  8  1  0  0  0  0
  1  9  1  0  0  0  0
  2 10  1  0  0  0  0
  2 11  1  0  0  0  0
  3 12  1  0  0  0  0
  3 13  1  0  0  0  0
  4 14  1  0  0  0  0
  4 15  1  0  0  0  0
  5 16  1  0  0  0  0
  5 17  1  0  0  0  0
M  END
