 xtb: 6.7.1 (edcfbbe)
          04112514463D

 23 22  0     0  0            999 V2000
    2.9819    0.3504    0.3669 C   0  0  0  0  0  0  0  0  0  0  0  0
    2.1513   -0.6484   -0.4316 C   0  0  0  0  0  0  0  0  0  0  0  0
    0.7021   -0.2032   -0.6386 C   0  0  0  0  0  0  0  0  0  0  0  0
   -0.0996   -0.1807    0.6620 C   0  0  0  0  0  0  0  0  0  0  0  0
   -1.5975    0.1196    0.4993 C   0  0  0  0  0  0  0  0  0  0  0  0
   -1.8415    1.4851   -0.1404 C   0  0  0  0  0  0  0  0  0  0  0  0
   -2.3254   -0.9723   -0.2830 C   0  0  0  0  0  0  0  0  0  0  0  0
    4.0198    0.0283    0.4090 H   0  0  0  0  0  0  0  0  0  0  0  0
    2.9460    1.3324   -0.0998 H   0  0  0  0  0  0  0  0  0  0  0  0
    2.6140    0.4387    1.3855 H   0  0  0  0  0  0  0  0  0  0  0  0
    2.1626   -1.6162    0.0752 H   0  0  0  0  0  0  0  0  0  0  0  0
    2.6147   -0.7846   -1.4119 H   0  0  0  0  0  0  0  0  0  0  0  0
    0.7008    0.7900   -1.0906 H   0  0  0  0  0  0  0  0  0  0  0  0
    0.2311   -0.8937   -1.3401 H   0  0  0  0  0  0  0  0  0  0  0  0
    0.0048   -1.1517    1.1536 H   0  0  0  0  0  0  0  0  0  0  0  0
    0.3243    0.5726    1.3289 H   0  0  0  0  0  0  0  0  0  0  0  0
   -2.0217    0.1423    1.5111 H   0  0  0  0  0  0  0  0  0  0  0  0
   -1.2921    2.2601    0.3891 H   0  0  0  0  0  0  0  0  0  0  0  0
   -1.5276    1.4854   -1.1810 H   0  0  0  0  0  0  0  0  0  0  0  0
   -2.9004    1.7314   -0.1068 H   0  0  0  0  0  0  0  0  0  0  0  0
   -3.3989   -0.7988   -0.2567 H   0  0  0  0  0  0  0  0  0  0  0  0
   -2.1253   -1.9508    0.1474 H   0  0  0  0  0  0  0  0  0  0  0  0
   -2.0119   -0.9804   -1.3238 H   0  0  0  0  0  0  0  0  0  0  0  0
  1  2  1  0  0  0  0
  2  3  1  0  0  0  0
  3  4  1  0  0  0  0
  4  5  1  0  0  0  0
  5  6  1  0  0  0  0
  5  7  1  0  0  0  0
  1  8  1  0  0  0  0
  1  9  1  0  0  0  0
  1 10  1  0  0  0  0
  2 11  1  0  0  0  0
  2 12  1  0  0  0  0
  3 13  1  0  0  0  0
  3 14  1  0  0  0  0
  4 15  1  0  0  0  0
  4 16  1  0  0  0  0
  5 17  1  0  0  0  0
  6 18  1  0  0  0  0
  6 19  1  0  0  0  0
  6 20  1  0  0  0  0
  7 21  1  0  0  0  0
  7 22  1  0  0  0  0
  7 23  1  0  0  0  0
M  END
