 xtb: 6.7.1 (edcfbbe)
          04112516123D

 19 18  0     0  0            999 V2000
   -3.4912   -0.3262   -0.2880 C   0  0  0  0  0  0  0  0  0  0  0  0
   -2.2516    0.0691    0.5061 C   0  0  0  0  0  0  0  0  0  0  0  0
   -1.0156    0.1730   -0.3849 C   0  0  0  0  0  0  0  0  0  0  0  0
    0.2290    0.5630    0.4094 C   0  0  0  0  0  0  0  0  0  0  0  0
    1.4831    0.6649   -0.4848 C   0  0  0  0  0  0  0  0  0  0  0  0
    2.5302   -0.2362   -0.0504 C   0  0  0  0  0  0  0  0  0  0  0  0
    3.3771   -0.9914    0.3311 C   0  0  0  0  0  0  0  0  0  0  0  0
   -3.6997    0.4104   -1.0608 H   0  0  0  0  0  0  0  0  0  0  0  0
   -4.3579   -0.3941    0.3649 H   0  0  0  0  0  0  0  0  0  0  0  0
   -3.3448   -1.2920   -0.7663 H   0  0  0  0  0  0  0  0  0  0  0  0
   -2.4254    1.0303    0.9955 H   0  0  0  0  0  0  0  0  0  0  0  0
   -2.0698   -0.6716    1.2883 H   0  0  0  0  0  0  0  0  0  0  0  0
   -1.1980    0.9173   -1.1642 H   0  0  0  0  0  0  0  0  0  0  0  0
   -0.8449   -0.7895   -0.8738 H   0  0  0  0  0  0  0  0  0  0  0  0
    0.3996   -0.1814    1.1906 H   0  0  0  0  0  0  0  0  0  0  0  0
    0.0510    1.5188    0.9056 H   0  0  0  0  0  0  0  0  0  0  0  0
    1.8794    1.6826   -0.4766 H   0  0  0  0  0  0  0  0  0  0  0  0
    1.2251    0.4173   -1.5177 H   0  0  0  0  0  0  0  0  0  0  0  0
    4.1262   -1.6494    0.6559 H   0  0  0  0  0  0  0  0  0  0  0  0
  1  2  1  0  0  0  0
  2  3  1  0  0  0  0
  3  4  1  0  0  0  0
  4  5  1  0  0  0  0
  5  6  1  0  0  0  0
  6  7  3  0  0  0  0
  1  8  1  0  0  0  0
  1  9  1  0  0  0  0
  1 10  1  0  0  0  0
  2 11  1  0  0  0  0
  2 12  1  0  0  0  0
  3 13  1  0  0  0  0
  3 14  1  0  0  0  0
  4 15  1  0  0  0  0
  4 16  1  0  0  0  0
  5 17  1  0  0  0  0
  5 18  1  0  0  0  0
  7 19  1  0  0  0  0
M  END
