 xtb: 6.7.1 (edcfbbe)
          04112517193D

 23 23  0     0  0            999 V2000
   -3.8218   -0.4534    0.1480 C   0  0  0  0  0  0  0  0  0  0  0  0
   -2.7653    0.4898    0.2091 O   0  0  0  0  0  0  0  0  0  0  0  0
   -1.4830    0.0347    0.1293 C   0  0  0  0  0  0  0  0  0  0  0  0
   -1.1081   -1.2810   -0.0088 C   0  0  0  0  0  0  0  0  0  0  0  0
    0.2481   -1.6261   -0.0804 C   0  0  0  0  0  0  0  0  0  0  0  0
    1.2024   -0.6127   -0.0086 C   0  0  0  0  0  0  0  0  0  0  0  0
    0.8493    0.7357    0.1323 C   0  0  0  0  0  0  0  0  0  0  0  0
   -0.5126    1.0609    0.2016 C   0  0  0  0  0  0  0  0  0  0  0  0
   -0.9304    2.3371    0.3364 O   0  0  0  0  0  0  0  0  0  0  0  0
    1.8940    1.5972    0.1866 O   0  0  0  0  0  0  0  0  0  0  0  0
    1.6918    2.9962    0.3353 C   0  0  0  0  0  0  0  0  0  0  0  0
    2.8920   -0.9619   -0.0896 Cl  0  0  0  0  0  0  0  0  0  0  0  0
    0.6039   -3.0284   -0.2263 C   0  0  0  0  0  0  0  0  0  0  0  0
   -0.1960   -3.9424   -0.2921 O   0  0  0  0  0  0  0  0  0  0  0  0
   -3.7608   -1.1625    0.9757 H   0  0  0  0  0  0  0  0  0  0  0  0
   -3.8111   -0.9911   -0.8020 H   0  0  0  0  0  0  0  0  0  0  0  0
   -4.7324    0.1348    0.2305 H   0  0  0  0  0  0  0  0  0  0  0  0
   -1.8225   -2.0854   -0.0669 H   0  0  0  0  0  0  0  0  0  0  0  0
   -1.9048    2.3534    0.3654 H   0  0  0  0  0  0  0  0  0  0  0  0
    1.1817    3.2247    1.2710 H   0  0  0  0  0  0  0  0  0  0  0  0
    1.1290    3.4060   -0.5032 H   0  0  0  0  0  0  0  0  0  0  0  0
    2.6962    3.4140    0.3482 H   0  0  0  0  0  0  0  0  0  0  0  0
    1.6848   -3.2322   -0.2767 H   0  0  0  0  0  0  0  0  0  0  0  0
  1  2  1  0  0  0  0
  2  3  1  0  0  0  0
  3  4  4  0  0  0  0
  4  5  4  0  0  0  0
  5  6  4  0  0  0  0
  6  7  4  0  0  0  0
  3  8  4  0  0  0  0
  7  8  4  0  0  0  0
  8  9  1  0  0  0  0
  7 10  1  0  0  0  0
 10 11  1  0  0  0  0
  6 12  1  0  0  0  0
  5 13  1  0  0  0  0
 13 14  2  0  0  0  0
  1 15  1  0  0  0  0
  1 16  1  0  0  0  0
  1 17  1  0  0  0  0
  4 18  1  0  0  0  0
  9 19  1  0  0  0  0
 11 20  1  0  0  0  0
 11 21  1  0  0  0  0
 11 22  1  0  0  0  0
 13 23  1  0  0  0  0
M  END
