 xtb: 6.7.1 (edcfbbe)
          04112516193D

 23 23  0     0  0            999 V2000
   -4.1413   -0.4940    0.0996 C   0  0  0  0  0  0  0  0  0  0  0  0
   -3.1716    0.5377    0.0190 O   0  0  0  0  0  0  0  0  0  0  0  0
   -1.8659    0.1892   -0.0165 C   0  0  0  0  0  0  0  0  0  0  0  0
   -1.3703   -1.0960    0.0615 C   0  0  0  0  0  0  0  0  0  0  0  0
    0.0064   -1.3577    0.0015 C   0  0  0  0  0  0  0  0  0  0  0  0
    0.9056   -0.2883   -0.1397 C   0  0  0  0  0  0  0  0  0  0  0  0
    0.4312    1.0200   -0.1749 C   0  0  0  0  0  0  0  0  0  0  0  0
   -0.9540    1.2590   -0.1273 C   0  0  0  0  0  0  0  0  0  0  0  0
   -1.4243    2.5091   -0.1878 O   0  0  0  0  0  0  0  0  0  0  0  0
    1.1754    2.1620   -0.2968 O   0  0  0  0  0  0  0  0  0  0  0  0
    2.3370    2.3336    0.5123 C   0  0  0  0  0  0  0  0  0  0  0  0
    2.5967   -0.6131   -0.3215 Cl  0  0  0  0  0  0  0  0  0  0  0  0
    0.4189   -2.7472    0.0926 C   0  0  0  0  0  0  0  0  0  0  0  0
    1.5520   -3.1908    0.0937 O   0  0  0  0  0  0  0  0  0  0  0  0
   -4.0350   -1.0624    1.0262 H   0  0  0  0  0  0  0  0  0  0  0  0
   -4.0712   -1.1631   -0.7608 H   0  0  0  0  0  0  0  0  0  0  0  0
   -5.0998    0.0186    0.0905 H   0  0  0  0  0  0  0  0  0  0  0  0
   -2.0372   -1.9351    0.1665 H   0  0  0  0  0  0  0  0  0  0  0  0
   -0.6728    3.1297   -0.2606 H   0  0  0  0  0  0  0  0  0  0  0  0
    2.4052    3.4047    0.6955 H   0  0  0  0  0  0  0  0  0  0  0  0
    3.2320    1.9932   -0.0076 H   0  0  0  0  0  0  0  0  0  0  0  0
    2.2369    1.8008    1.4574 H   0  0  0  0  0  0  0  0  0  0  0  0
   -0.4340   -3.4451    0.1764 H   0  0  0  0  0  0  0  0  0  0  0  0
  1  2  1  0  0  0  0
  2  3  1  0  0  0  0
  3  4  4  0  0  0  0
  4  5  4  0  0  0  0
  5  6  4  0  0  0  0
  6  7  4  0  0  0  0
  3  8  4  0  0  0  0
  7  8  4  0  0  0  0
  8  9  1  0  0  0  0
  7 10  1  0  0  0  0
 10 11  1  0  0  0  0
  6 12  1  0  0  0  0
  5 13  1  0  0  0  0
 13 14  2  0  0  0  0
  1 15  1  0  0  0  0
  1 16  1  0  0  0  0
  1 17  1  0  0  0  0
  4 18  1  0  0  0  0
  9 19  1  0  0  0  0
 11 20  1  0  0  0  0
 11 21  1  0  0  0  0
 11 22  1  0  0  0  0
 13 23  1  0  0  0  0
M  END
