 xtb: 6.7.1 (edcfbbe)
          04112516213D

 19 18  0     0  0            999 V2000
    2.3276   -0.8066   -0.1241 C   0  0  0  0  0  0  0  0  0  0  0  0
    1.6103    0.4307   -0.6526 C   0  0  0  0  0  0  0  0  0  0  0  0
    0.8361    1.1837    0.4303 C   0  0  0  0  0  0  0  0  0  0  0  0
   -0.2618    0.3413    1.0987 C   0  0  0  0  0  0  0  0  0  0  0  0
   -1.2011   -0.2749    0.0908 C   0  0  0  0  0  0  0  0  0  0  0  0
   -1.2020   -1.4695   -0.1391 O   0  0  0  0  0  0  0  0  0  0  0  0
   -2.1390    0.6736   -0.5944 C   0  0  0  0  0  0  0  0  0  0  0  0
    2.9442   -0.5544    0.7358 H   0  0  0  0  0  0  0  0  0  0  0  0
    1.6109   -1.5701    0.1684 H   0  0  0  0  0  0  0  0  0  0  0  0
    2.9681   -1.2277   -0.8953 H   0  0  0  0  0  0  0  0  0  0  0  0
    0.9268    0.1297   -1.4505 H   0  0  0  0  0  0  0  0  0  0  0  0
    2.3454    1.1132   -1.0851 H   0  0  0  0  0  0  0  0  0  0  0  0
    0.3913    2.0770   -0.0104 H   0  0  0  0  0  0  0  0  0  0  0  0
    1.5320    1.5075    1.2062 H   0  0  0  0  0  0  0  0  0  0  0  0
    0.1942   -0.4608    1.6798 H   0  0  0  0  0  0  0  0  0  0  0  0
   -0.8336    0.9835    1.7689 H   0  0  0  0  0  0  0  0  0  0  0  0
   -1.5861    1.5035   -1.0248 H   0  0  0  0  0  0  0  0  0  0  0  0
   -2.6983    0.1566   -1.3693 H   0  0  0  0  0  0  0  0  0  0  0  0
   -2.8308    1.0775    0.1413 H   0  0  0  0  0  0  0  0  0  0  0  0
  1  2  1  0  0  0  0
  2  3  1  0  0  0  0
  3  4  1  0  0  0  0
  4  5  1  0  0  0  0
  5  6  2  0  0  0  0
  5  7  1  0  0  0  0
  1  8  1  0  0  0  0
  1  9  1  0  0  0  0
  1 10  1  0  0  0  0
  2 11  1  0  0  0  0
  2 12  1  0  0  0  0
  3 13  1  0  0  0  0
  3 14  1  0  0  0  0
  4 15  1  0  0  0  0
  4 16  1  0  0  0  0
  7 17  1  0  0  0  0
  7 18  1  0  0  0  0
  7 19  1  0  0  0  0
M  END
