 xtb: 6.7.1 (edcfbbe)
          04112514143D

 16 15  0     0  0            999 V2000
   -1.6183   -1.2594    0.1257 C   0  0  0  0  0  0  0  0  0  0  0  0
   -1.3828   -0.0441   -0.5611 O   0  0  0  0  0  0  0  0  0  0  0  0
   -0.8744    1.0015    0.2524 C   0  0  0  0  0  0  0  0  0  0  0  0
    0.6472    1.1824    0.1255 C   0  0  0  0  0  0  0  0  0  0  0  0
    1.3832    0.0506    0.5620 O   0  0  0  0  0  0  0  0  0  0  0  0
    1.8327   -0.7943   -0.4812 C   0  0  0  0  0  0  0  0  0  0  0  0
   -1.9249   -1.9766   -0.6323 H   0  0  0  0  0  0  0  0  0  0  0  0
   -2.4212   -1.1359    0.8604 H   0  0  0  0  0  0  0  0  0  0  0  0
   -0.7190   -1.6162    0.6343 H   0  0  0  0  0  0  0  0  0  0  0  0
   -1.3553    1.9235   -0.0873 H   0  0  0  0  0  0  0  0  0  0  0  0
   -1.1355    0.8226    1.3001 H   0  0  0  0  0  0  0  0  0  0  0  0
    0.9447    2.0155    0.7692 H   0  0  0  0  0  0  0  0  0  0  0  0
    0.9023    1.4186   -0.9122 H   0  0  0  0  0  0  0  0  0  0  0  0
    1.0054   -1.1351   -1.1091 H   0  0  0  0  0  0  0  0  0  0  0  0
    2.3040   -1.6452    0.0053 H   0  0  0  0  0  0  0  0  0  0  0  0
    2.5675   -0.2753   -1.1061 H   0  0  0  0  0  0  0  0  0  0  0  0
  1  2  1  0  0  0  0
  2  3  1  0  0  0  0
  3  4  1  0  0  0  0
  4  5  1  0  0  0  0
  5  6  1  0  0  0  0
  1  7  1  0  0  0  0
  1  8  1  0  0  0  0
  1  9  1  0  0  0  0
  3 10  1  0  0  0  0
  3 11  1  0  0  0  0
  4 12  1  0  0  0  0
  4 13  1  0  0  0  0
  6 14  1  0  0  0  0
  6 15  1  0  0  0  0
  6 16  1  0  0  0  0
M  END
