 xtb: 6.7.1 (edcfbbe)
          04112516113D

 20 19  0     0  0            999 V2000
    2.3679   -1.4970    0.5547 C   0  0  0  0  0  0  0  0  0  0  0  0
    1.8503   -0.3096   -0.1932 C   0  0  0  0  0  0  0  0  0  0  0  0
    2.0577   -0.0698   -1.3630 O   0  0  0  0  0  0  0  0  0  0  0  0
    1.1488    0.5046    0.5993 O   0  0  0  0  0  0  0  0  0  0  0  0
    0.5924    1.6883    0.0192 C   0  0  0  0  0  0  0  0  0  0  0  0
   -0.6660    1.3769   -0.7902 C   0  0  0  0  0  0  0  0  0  0  0  0
   -1.6955    0.8613    0.0547 O   0  0  0  0  0  0  0  0  0  0  0  0
   -1.7727   -0.4583    0.2366 C   0  0  0  0  0  0  0  0  0  0  0  0
   -1.0524   -1.2547   -0.3269 O   0  0  0  0  0  0  0  0  0  0  0  0
   -2.8499   -0.8072    1.2150 C   0  0  0  0  0  0  0  0  0  0  0  0
    2.4607   -2.3379   -0.1249 H   0  0  0  0  0  0  0  0  0  0  0  0
    1.7016   -1.7336    1.3772 H   0  0  0  0  0  0  0  0  0  0  0  0
    3.3520   -1.2533    0.9498 H   0  0  0  0  0  0  0  0  0  0  0  0
    0.3560    2.3299    0.8679 H   0  0  0  0  0  0  0  0  0  0  0  0
    1.3312    2.1533   -0.6394 H   0  0  0  0  0  0  0  0  0  0  0  0
   -0.4349    0.6457   -1.5716 H   0  0  0  0  0  0  0  0  0  0  0  0
   -1.0644    2.2932   -1.2242 H   0  0  0  0  0  0  0  0  0  0  0  0
   -2.4122   -0.8214    2.2112 H   0  0  0  0  0  0  0  0  0  0  0  0
   -3.2403   -1.7951    0.9928 H   0  0  0  0  0  0  0  0  0  0  0  0
   -3.6315   -0.0555    1.1872 H   0  0  0  0  0  0  0  0  0  0  0  0
  1  2  1  0  0  0  0
  2  3  2  0  0  0  0
  2  4  1  0  0  0  0
  4  5  1  0  0  0  0
  5  6  1  0  0  0  0
  6  7  1  0  0  0  0
  7  8  1  0  0  0  0
  8  9  2  0  0  0  0
  8 10  1  0  0  0  0
  1 11  1  0  0  0  0
  1 12  1  0  0  0  0
  1 13  1  0  0  0  0
  5 14  1  0  0  0  0
  5 15  1  0  0  0  0
  6 16  1  0  0  0  0
  6 17  1  0  0  0  0
 10 18  1  0  0  0  0
 10 19  1  0  0  0  0
 10 20  1  0  0  0  0
M  END
