 xtb: 6.7.1 (edcfbbe)
          04112516263D

 20 19  0     0  0            999 V2000
   -2.3038   -1.2430    0.5927 C   0  0  0  0  0  0  0  0  0  0  0  0
   -1.9885   -0.3136   -0.5744 C   0  0  0  0  0  0  0  0  0  0  0  0
   -1.5689    1.0904   -0.1357 C   0  0  0  0  0  0  0  0  0  0  0  0
   -0.2944    1.1048    0.7187 C   0  0  0  0  0  0  0  0  0  0  0  0
    0.8555    0.4958   -0.0382 C   0  0  0  0  0  0  0  0  0  0  0  0
    1.3218    0.9295   -1.0710 O   0  0  0  0  0  0  0  0  0  0  0  0
    1.3120   -0.6015    0.5574 O   0  0  0  0  0  0  0  0  0  0  0  0
    2.4056   -1.2844   -0.0598 C   0  0  0  0  0  0  0  0  0  0  0  0
   -2.7161   -2.1787    0.2235 H   0  0  0  0  0  0  0  0  0  0  0  0
   -1.4068   -1.4716    1.1621 H   0  0  0  0  0  0  0  0  0  0  0  0
   -3.0331   -0.7839    1.2557 H   0  0  0  0  0  0  0  0  0  0  0  0
   -1.1958   -0.7512   -1.1868 H   0  0  0  0  0  0  0  0  0  0  0  0
   -2.8743   -0.2205   -1.2064 H   0  0  0  0  0  0  0  0  0  0  0  0
   -2.3750    1.5472    0.4396 H   0  0  0  0  0  0  0  0  0  0  0  0
   -1.3938    1.6985   -1.0255 H   0  0  0  0  0  0  0  0  0  0  0  0
   -0.4360    0.5540    1.6461 H   0  0  0  0  0  0  0  0  0  0  0  0
   -0.0350    2.1396    0.9459 H   0  0  0  0  0  0  0  0  0  0  0  0
    2.6142   -2.1396    0.5749 H   0  0  0  0  0  0  0  0  0  0  0  0
    3.2698   -0.6222   -0.1231 H   0  0  0  0  0  0  0  0  0  0  0  0
    2.1282   -1.6009   -1.0661 H   0  0  0  0  0  0  0  0  0  0  0  0
  1  2  1  0  0  0  0
  2  3  1  0  0  0  0
  3  4  1  0  0  0  0
  4  5  1  0  0  0  0
  5  6  2  0  0  0  0
  5  7  1  0  0  0  0
  7  8  1  0  0  0  0
  1  9  1  0  0  0  0
  1 10  1  0  0  0  0
  1 11  1  0  0  0  0
  2 12  1  0  0  0  0
  2 13  1  0  0  0  0
  3 14  1  0  0  0  0
  3 15  1  0  0  0  0
  4 16  1  0  0  0  0
  4 17  1  0  0  0  0
  8 18  1  0  0  0  0
  8 19  1  0  0  0  0
  8 20  1  0  0  0  0
M  END
