 xtb: 6.7.1 (edcfbbe)
          04112514483D

 18 17  0     0  0            999 V2000
    2.0263    0.8105   -0.5065 C   0  0  0  0  0  0  0  0  0  0  0  0
    1.3918    0.1436    0.7086 C   0  0  0  0  0  0  0  0  0  0  0  0
    0.6416   -1.1439    0.3645 C   0  0  0  0  0  0  0  0  0  0  0  0
   -0.6125   -0.9075   -0.4846 C   0  0  0  0  0  0  0  0  0  0  0  0
   -1.6047   -0.0404    0.2212 C   0  0  0  0  0  0  0  0  0  0  0  0
   -2.1023    1.0824   -0.2623 C   0  0  0  0  0  0  0  0  0  0  0  0
    2.6800    0.1130   -1.0259 H   0  0  0  0  0  0  0  0  0  0  0  0
    2.6164    1.6702   -0.1982 H   0  0  0  0  0  0  0  0  0  0  0  0
    1.2656    1.1557   -1.2013 H   0  0  0  0  0  0  0  0  0  0  0  0
    2.1767   -0.0955    1.4301 H   0  0  0  0  0  0  0  0  0  0  0  0
    0.7020    0.8430    1.1861 H   0  0  0  0  0  0  0  0  0  0  0  0
    1.3123   -1.8185   -0.1721 H   0  0  0  0  0  0  0  0  0  0  0  0
    0.3472   -1.6366    1.2944 H   0  0  0  0  0  0  0  0  0  0  0  0
   -0.3420   -0.4609   -1.4417 H   0  0  0  0  0  0  0  0  0  0  0  0
   -1.0766   -1.8775   -0.6864 H   0  0  0  0  0  0  0  0  0  0  0  0
   -1.9087   -0.3923    1.1993 H   0  0  0  0  0  0  0  0  0  0  0  0
   -2.8186    1.6738    0.2824 H   0  0  0  0  0  0  0  0  0  0  0  0
   -1.8159    1.4573   -1.2317 H   0  0  0  0  0  0  0  0  0  0  0  0
  1  2  1  0  0  0  0
  2  3  1  0  0  0  0
  3  4  1  0  0  0  0
  4  5  1  0  0  0  0
  5  6  2  0  0  0  0
  1  7  1  0  0  0  0
  1  8  1  0  0  0  0
  1  9  1  0  0  0  0
  2 10  1  0  0  0  0
  2 11  1  0  0  0  0
  3 12  1  0  0  0  0
  3 13  1  0  0  0  0
  4 14  1  0  0  0  0
  4 15  1  0  0  0  0
  5 16  1  0  0  0  0
  6 17  1  0  0  0  0
  6 18  1  0  0  0  0
M  END
