 xtb: 6.7.1 (edcfbbe)
          04112514153D

 17 16  0     0  0            999 V2000
    2.6885   -1.3096   -0.1114 C   0  0  0  0  0  0  0  0  0  0  0  0
    2.3580    0.0617    0.4667 C   0  0  0  0  0  0  0  0  0  0  0  0
    1.2917    0.8072   -0.3454 C   0  0  0  0  0  0  0  0  0  0  0  0
   -0.0684    0.2420   -0.1826 C   0  0  0  0  0  0  0  0  0  0  0  0
   -1.2052    0.9528   -0.1933 C   0  0  0  0  0  0  0  0  0  0  0  0
   -2.4986    0.3180   -0.0505 C   0  0  0  0  0  0  0  0  0  0  0  0
   -2.6945   -0.8736    0.1127 O   0  0  0  0  0  0  0  0  0  0  0  0
    1.8150   -1.9565   -0.1187 H   0  0  0  0  0  0  0  0  0  0  0  0
    3.0527   -1.2152   -1.1320 H   0  0  0  0  0  0  0  0  0  0  0  0
    3.4595   -1.7927    0.4835 H   0  0  0  0  0  0  0  0  0  0  0  0
    3.2657    0.6672    0.4792 H   0  0  0  0  0  0  0  0  0  0  0  0
    2.0164   -0.0457    1.4978 H   0  0  0  0  0  0  0  0  0  0  0  0
    1.5564    0.7392   -1.4056 H   0  0  0  0  0  0  0  0  0  0  0  0
    1.2825    1.8653   -0.0787 H   0  0  0  0  0  0  0  0  0  0  0  0
   -0.1519   -0.8301   -0.0560 H   0  0  0  0  0  0  0  0  0  0  0  0
   -1.2000    2.0251   -0.3163 H   0  0  0  0  0  0  0  0  0  0  0  0
   -3.3606    1.0084   -0.0984 H   0  0  0  0  0  0  0  0  0  0  0  0
  1  2  1  0  0  0  0
  2  3  1  0  0  0  0
  3  4  1  0  0  0  0
  4  5  2  0  0  0  0
  5  6  1  0  0  0  0
  6  7  2  0  0  0  0
  1  8  1  0  0  0  0
  1  9  1  0  0  0  0
  1 10  1  0  0  0  0
  2 11  1  0  0  0  0
  2 12  1  0  0  0  0
  3 13  1  0  0  0  0
  3 14  1  0  0  0  0
  4 15  1  0  0  0  0
  5 16  1  0  0  0  0
  6 17  1  0  0  0  0
M  END
