 xtb: 6.7.1 (edcfbbe)
          04112514233D

 18 17  0     0  0            999 V2000
    2.8437    0.4381    0.1266 C   0  0  0  0  0  0  0  0  0  0  0  0
    1.4647    0.1852   -0.4718 C   0  0  0  0  0  0  0  0  0  0  0  0
    0.5576   -0.5580    0.5066 C   0  0  0  0  0  0  0  0  0  0  0  0
   -0.8058   -0.9329   -0.0912 C   0  0  0  0  0  0  0  0  0  0  0  0
   -1.6477    0.2674   -0.3877 C   0  0  0  0  0  0  0  0  0  0  0  0
   -2.7397    0.5918    0.2791 C   0  0  0  0  0  0  0  0  0  0  0  0
    2.7611    1.0343    1.0327 H   0  0  0  0  0  0  0  0  0  0  0  0
    3.4752    0.9716   -0.5796 H   0  0  0  0  0  0  0  0  0  0  0  0
    3.3287   -0.5023    0.3793 H   0  0  0  0  0  0  0  0  0  0  0  0
    1.0117    1.1410   -0.7400 H   0  0  0  0  0  0  0  0  0  0  0  0
    1.5692   -0.4045   -1.3857 H   0  0  0  0  0  0  0  0  0  0  0  0
    1.0595   -1.4752    0.8239 H   0  0  0  0  0  0  0  0  0  0  0  0
    0.3993    0.0587    1.3943 H   0  0  0  0  0  0  0  0  0  0  0  0
   -0.6425   -1.4957   -1.0140 H   0  0  0  0  0  0  0  0  0  0  0  0
   -1.3337   -1.5771    0.6147 H   0  0  0  0  0  0  0  0  0  0  0  0
   -1.3058    0.8932   -1.2012 H   0  0  0  0  0  0  0  0  0  0  0  0
   -3.3163    1.4698    0.0425 H   0  0  0  0  0  0  0  0  0  0  0  0
   -3.1064   -0.0139    1.0920 H   0  0  0  0  0  0  0  0  0  0  0  0
  1  2  1  0  0  0  0
  2  3  1  0  0  0  0
  3  4  1  0  0  0  0
  4  5  1  0  0  0  0
  5  6  2  0  0  0  0
  1  7  1  0  0  0  0
  1  8  1  0  0  0  0
  1  9  1  0  0  0  0
  2 10  1  0  0  0  0
  2 11  1  0  0  0  0
  3 12  1  0  0  0  0
  3 13  1  0  0  0  0
  4 14  1  0  0  0  0
  4 15  1  0  0  0  0
  5 16  1  0  0  0  0
  6 17  1  0  0  0  0
  6 18  1  0  0  0  0
M  END
