 xtb: 6.7.1 (edcfbbe)
          04112516353D

 13 13  0     0  0            999 V2000
    1.8054    0.2491   -1.0322 C   0  0  0  0  0  0  0  0  0  0  0  0
    1.6745   -0.1639    0.3946 C   0  0  0  0  0  0  0  0  0  0  0  0
    2.4679   -0.8660    0.9779 O   0  0  0  0  0  0  0  0  0  0  0  0
    0.4533    0.3664    1.1448 C   0  0  0  0  0  0  0  0  0  0  0  0
   -0.4742    1.0750    0.3441 O   0  0  0  0  0  0  0  0  0  0  0  0
   -1.3728    0.3357   -0.3761 N   0  0  0  0  0  0  0  0  0  0  0  0
   -1.3067   -0.8500   -0.2885 O   0  0  0  0  0  0  0  0  0  0  0  0
   -2.1244    0.9939   -1.0191 O   0  0  0  0  0  0  0  0  0  0  0  0
    1.1266   -0.3562   -1.6337 H   0  0  0  0  0  0  0  0  0  0  0  0
    1.5346    1.2947   -1.1553 H   0  0  0  0  0  0  0  0  0  0  0  0
    2.8189    0.0679   -1.3770 H   0  0  0  0  0  0  0  0  0  0  0  0
    0.7916    1.0911    1.8892 H   0  0  0  0  0  0  0  0  0  0  0  0
   -0.0321   -0.4690    1.6605 H   0  0  0  0  0  0  0  0  0  0  0  0
  1  2  1  0  0  0  0
  2  3  2  0  0  0  0
  2  4  1  0  0  0  0
  4  5  1  0  0  0  0
  5  6  1  0  0  0  0
  6  7  4  0  0  0  0
  6  8  4  0  0  0  0
  7  8  1  0  0  0  0
  1  9  1  0  0  0  0
  1 10  1  0  0  0  0
  1 11  1  0  0  0  0
  4 12  1  0  0  0  0
  4 13  1  0  0  0  0
M  END
