 xtb: 6.7.1 (edcfbbe)
          04112516153D

 26 25  0     0  0            999 V2000
    1.3098    1.4096   -0.9760 C   0  0  0  0  0  0  0  0  0  0  0  0
    1.5328    0.2087   -0.0587 C   0  0  0  0  0  0  0  0  0  0  0  0
    1.5801   -1.1008   -0.8424 C   0  0  0  0  0  0  0  0  0  0  0  0
    0.4577    0.1506    0.9878 C   0  0  0  0  0  0  0  0  0  0  0  0
   -0.7874    0.0010    0.8583 N   0  0  0  0  0  0  0  0  0  0  0  0
   -1.2885   -0.1323   -0.4545 O   0  0  0  0  0  0  0  0  0  0  0  0
   -2.6458   -0.3288   -0.5425 C   0  0  0  0  0  0  0  0  0  0  0  0
   -3.1049   -0.4437   -1.6643 O   0  0  0  0  0  0  0  0  0  0  0  0
   -3.3085   -0.3761    0.6034 N   0  0  0  0  0  0  0  0  0  0  0  0
   -4.7363   -0.5835    0.6811 C   0  0  0  0  0  0  0  0  0  0  0  0
    3.1030    0.4390    0.9155 S   0  0  0  0  0  0  0  0  0  0  0  0
    4.4084    0.2974   -0.3373 C   0  0  0  0  0  0  0  0  0  0  0  0
    2.0845    1.4536   -1.7371 H   0  0  0  0  0  0  0  0  0  0  0  0
    0.3469    1.3178   -1.4744 H   0  0  0  0  0  0  0  0  0  0  0  0
    1.3257    2.3322   -0.3996 H   0  0  0  0  0  0  0  0  0  0  0  0
    1.8212   -1.9297   -0.1800 H   0  0  0  0  0  0  0  0  0  0  0  0
    2.3248   -1.0431   -1.6317 H   0  0  0  0  0  0  0  0  0  0  0  0
    0.6116   -1.2859   -1.3027 H   0  0  0  0  0  0  0  0  0  0  0  0
    0.7617    0.2480    2.0226 H   0  0  0  0  0  0  0  0  0  0  0  0
   -2.7769   -0.2585    1.4572 H   0  0  0  0  0  0  0  0  0  0  0  0
   -4.9501   -1.4905    1.2446 H   0  0  0  0  0  0  0  0  0  0  0  0
   -5.1189   -0.6856   -0.3324 H   0  0  0  0  0  0  0  0  0  0  0  0
   -5.2109    0.2682    1.1659 H   0  0  0  0  0  0  0  0  0  0  0  0
    5.3295    0.5426    0.1811 H   0  0  0  0  0  0  0  0  0  0  0  0
    4.2347    1.0098   -1.1367 H   0  0  0  0  0  0  0  0  0  0  0  0
    4.4542   -0.7197   -0.7121 H   0  0  0  0  0  0  0  0  0  0  0  0
  1  2  1  0  0  0  0
  2  3  1  0  0  0  0
  2  4  1  0  0  0  0
  4  5  2  0  0  0  0
  5  6  1  0  0  0  0
  6  7  1  0  0  0  0
  7  8  2  0  0  0  0
  7  9  4  0  0  0  0
  9 10  1  0  0  0  0
  2 11  1  0  0  0  0
 11 12  1  0  0  0  0
  1 13  1  0  0  0  0
  1 14  1  0  0  0  0
  1 15  1  0  0  0  0
  3 16  1  0  0  0  0
  3 17  1  0  0  0  0
  3 18  1  0  0  0  0
  4 19  1  0  0  0  0
  9 20  1  0  0  0  0
 10 21  1  0  0  0  0
 10 22  1  0  0  0  0
 10 23  1  0  0  0  0
 12 24  1  0  0  0  0
 12 25  1  0  0  0  0
 12 26  1  0  0  0  0
M  END
