 xtb: 6.7.1 (edcfbbe)
          04112514373D

 14 13  0     0  0            999 V2000
    0.3877    0.6919    0.5756 C   0  0  0  0  0  0  0  0  0  0  0  0
   -0.7891    1.4780   -0.0087 C   0  0  0  0  0  0  0  0  0  0  0  0
   -1.7237    0.6506   -0.8746 C   0  0  0  0  0  0  0  0  0  0  0  0
   -2.4750   -0.6907    0.0687 Cl  0  0  0  0  0  0  0  0  0  0  0  0
    1.3638    0.2321   -0.4949 C   0  0  0  0  0  0  0  0  0  0  0  0
    2.7916   -0.5587    0.2650 Cl  0  0  0  0  0  0  0  0  0  0  0  0
    0.0117   -0.1744    1.1217 H   0  0  0  0  0  0  0  0  0  0  0  0
    0.9168    1.3309    1.2835 H   0  0  0  0  0  0  0  0  0  0  0  0
   -0.4127    2.2964   -0.6243 H   0  0  0  0  0  0  0  0  0  0  0  0
   -1.3585    1.9058    0.8168 H   0  0  0  0  0  0  0  0  0  0  0  0
   -2.5508    1.2546   -1.2419 H   0  0  0  0  0  0  0  0  0  0  0  0
   -1.2066    0.1809   -1.7075 H   0  0  0  0  0  0  0  0  0  0  0  0
    0.9296   -0.5154   -1.1548 H   0  0  0  0  0  0  0  0  0  0  0  0
    1.7512    1.0699   -1.0720 H   0  0  0  0  0  0  0  0  0  0  0  0
  1  2  1  0  0  0  0
  2  3  1  0  0  0  0
  3  4  1  0  0  0  0
  1  5  1  0  0  0  0
  5  6  1  0  0  0  0
  1  7  1  0  0  0  0
  1  8  1  0  0  0  0
  2  9  1  0  0  0  0
  2 10  1  0  0  0  0
  3 11  1  0  0  0  0
  3 12  1  0  0  0  0
  5 13  1  0  0  0  0
  5 14  1  0  0  0  0
M  END
