 xtb: 6.7.1 (edcfbbe)
          04112514463D

 23 22  0     0  0            999 V2000
    3.2251    0.3143    0.2968 C   0  0  0  0  0  0  0  0  0  0  0  0
    1.7999   -0.1957    0.4777 C   0  0  0  0  0  0  0  0  0  0  0  0
    0.9846   -0.0482   -0.8054 C   0  0  0  0  0  0  0  0  0  0  0  0
   -0.4098   -0.6717   -0.7226 C   0  0  0  0  0  0  0  0  0  0  0  0
   -1.3460   -0.0631    0.3284 C   0  0  0  0  0  0  0  0  0  0  0  0
   -1.6022    1.4206    0.0740 C   0  0  0  0  0  0  0  0  0  0  0  0
   -2.6709   -0.8257    0.3298 C   0  0  0  0  0  0  0  0  0  0  0  0
    3.7898    0.2094    1.2201 H   0  0  0  0  0  0  0  0  0  0  0  0
    3.7351   -0.2459   -0.4839 H   0  0  0  0  0  0  0  0  0  0  0  0
    3.2197    1.3650    0.0147 H   0  0  0  0  0  0  0  0  0  0  0  0
    1.3231    0.3624    1.2851 H   0  0  0  0  0  0  0  0  0  0  0  0
    1.8249   -1.2483    0.7693 H   0  0  0  0  0  0  0  0  0  0  0  0
    0.9052    1.0090   -1.0638 H   0  0  0  0  0  0  0  0  0  0  0  0
    1.5255   -0.5395   -1.6186 H   0  0  0  0  0  0  0  0  0  0  0  0
   -0.8869   -0.5815   -1.7021 H   0  0  0  0  0  0  0  0  0  0  0  0
   -0.2999   -1.7382   -0.5088 H   0  0  0  0  0  0  0  0  0  0  0  0
   -0.8890   -0.1755    1.3169 H   0  0  0  0  0  0  0  0  0  0  0  0
   -0.6909    2.0015    0.1855 H   0  0  0  0  0  0  0  0  0  0  0  0
   -1.9885    1.5704   -0.9321 H   0  0  0  0  0  0  0  0  0  0  0  0
   -2.3337    1.8023    0.7827 H   0  0  0  0  0  0  0  0  0  0  0  0
   -2.5064   -1.8826    0.5270 H   0  0  0  0  0  0  0  0  0  0  0  0
   -3.1636   -0.7294   -0.6355 H   0  0  0  0  0  0  0  0  0  0  0  0
   -3.3368   -0.4340    1.0952 H   0  0  0  0  0  0  0  0  0  0  0  0
  1  2  1  0  0  0  0
  2  3  1  0  0  0  0
  3  4  1  0  0  0  0
  4  5  1  0  0  0  0
  5  6  1  0  0  0  0
  5  7  1  0  0  0  0
  1  8  1  0  0  0  0
  1  9  1  0  0  0  0
  1 10  1  0  0  0  0
  2 11  1  0  0  0  0
  2 12  1  0  0  0  0
  3 13  1  0  0  0  0
  3 14  1  0  0  0  0
  4 15  1  0  0  0  0
  4 16  1  0  0  0  0
  5 17  1  0  0  0  0
  6 18  1  0  0  0  0
  6 19  1  0  0  0  0
  6 20  1  0  0  0  0
  7 21  1  0  0  0  0
  7 22  1  0  0  0  0
  7 23  1  0  0  0  0
M  END
