 xtb: 6.7.1 (edcfbbe)
          04112516253D

 17 16  0     0  0            999 V2000
   -2.2875    0.2153    1.1183 C   0  0  0  0  0  0  0  0  0  0  0  0
   -1.7683   -0.5012   -0.1238 C   0  0  0  0  0  0  0  0  0  0  0  0
   -0.9976    0.4150   -1.0759 C   0  0  0  0  0  0  0  0  0  0  0  0
    0.2735    1.0013   -0.4534 C   0  0  0  0  0  0  0  0  0  0  0  0
    1.2440   -0.0817   -0.0671 C   0  0  0  0  0  0  0  0  0  0  0  0
    1.6111   -0.9804   -0.7946 O   0  0  0  0  0  0  0  0  0  0  0  0
    1.6778    0.0448    1.1781 O   0  0  0  0  0  0  0  0  0  0  0  0
   -1.4691    0.5342    1.7583 H   0  0  0  0  0  0  0  0  0  0  0  0
   -2.8709    1.0883    0.8355 H   0  0  0  0  0  0  0  0  0  0  0  0
   -2.9242   -0.4513    1.6946 H   0  0  0  0  0  0  0  0  0  0  0  0
   -2.6141   -0.9240   -0.6700 H   0  0  0  0  0  0  0  0  0  0  0  0
   -1.1241   -1.3324    0.1741 H   0  0  0  0  0  0  0  0  0  0  0  0
   -0.7136   -0.1586   -1.9605 H   0  0  0  0  0  0  0  0  0  0  0  0
   -1.6424    1.2364   -1.3904 H   0  0  0  0  0  0  0  0  0  0  0  0
    0.0495    1.6008    0.4268 H   0  0  0  0  0  0  0  0  0  0  0  0
    0.7701    1.6326   -1.1929 H   0  0  0  0  0  0  0  0  0  0  0  0
    2.3181   -0.6482    1.4314 H   0  0  0  0  0  0  0  0  0  0  0  0
  1  2  1  0  0  0  0
  2  3  1  0  0  0  0
  3  4  1  0  0  0  0
  4  5  1  0  0  0  0
  5  6  2  0  0  0  0
  5  7  1  0  0  0  0
  1  8  1  0  0  0  0
  1  9  1  0  0  0  0
  1 10  1  0  0  0  0
  2 11  1  0  0  0  0
  2 12  1  0  0  0  0
  3 13  1  0  0  0  0
  3 14  1  0  0  0  0
  4 15  1  0  0  0  0
  4 16  1  0  0  0  0
  7 17  1  0  0  0  0
M  END
