 xtb: 6.7.1 (edcfbbe)
          04112516203D

 17 16  0     0  0            999 V2000
   -3.5435   -0.9274    0.3484 C   0  0  0  0  0  0  0  0  0  0  0  0
   -2.5360   -0.0405   -0.3727 C   0  0  0  0  0  0  0  0  0  0  0  0
   -1.6325    0.7030    0.6101 C   0  0  0  0  0  0  0  0  0  0  0  0
   -0.6114    1.6050   -0.1026 C   0  0  0  0  0  0  0  0  0  0  0  0
    0.8136    1.3755    0.3606 C   0  0  0  0  0  0  0  0  0  0  0  0
    1.4431   -0.4370   -0.1106 Br  0  0  0  0  0  0  0  0  0  0  0  0
   -4.1643   -1.4588   -0.3683 H   0  0  0  0  0  0  0  0  0  0  0  0
   -4.1897   -0.3305    0.9881 H   0  0  0  0  0  0  0  0  0  0  0  0
   -3.0301   -1.6604    0.9669 H   0  0  0  0  0  0  0  0  0  0  0  0
   -1.9172   -0.6584   -1.0277 H   0  0  0  0  0  0  0  0  0  0  0  0
   -3.0675    0.6821   -0.9959 H   0  0  0  0  0  0  0  0  0  0  0  0
   -2.2502    1.2977    1.2849 H   0  0  0  0  0  0  0  0  0  0  0  0
   -1.1093   -0.0376    1.2193 H   0  0  0  0  0  0  0  0  0  0  0  0
   -0.6650    1.4409   -1.1809 H   0  0  0  0  0  0  0  0  0  0  0  0
   -0.8405    2.6567    0.0801 H   0  0  0  0  0  0  0  0  0  0  0  0
    0.9097    1.4427    1.4427 H   0  0  0  0  0  0  0  0  0  0  0  0
    1.5136    2.0552   -0.1220 H   0  0  0  0  0  0  0  0  0  0  0  0
  1  2  1  0  0  0  0
  2  3  1  0  0  0  0
  3  4  1  0  0  0  0
  4  5  1  0  0  0  0
  5  6  1  0  0  0  0
  1  7  1  0  0  0  0
  1  8  1  0  0  0  0
  1  9  1  0  0  0  0
  2 10  1  0  0  0  0
  2 11  1  0  0  0  0
  3 12  1  0  0  0  0
  3 13  1  0  0  0  0
  4 14  1  0  0  0  0
  4 15  1  0  0  0  0
  5 16  1  0  0  0  0
  5 17  1  0  0  0  0
M  END
