 xtb: 6.7.1 (edcfbbe)
          04112516053D

 23 23  0     0  0            999 V2000
   -3.9811   -0.7443   -0.0769 C   0  0  0  0  0  0  0  0  0  0  0  0
   -3.0780    0.3447    0.0235 O   0  0  0  0  0  0  0  0  0  0  0  0
   -1.7442    0.0805    0.0303 C   0  0  0  0  0  0  0  0  0  0  0  0
   -1.1641   -1.1641   -0.0574 C   0  0  0  0  0  0  0  0  0  0  0  0
    0.2297   -1.3109   -0.0358 C   0  0  0  0  0  0  0  0  0  0  0  0
    1.0386   -0.1742    0.0755 C   0  0  0  0  0  0  0  0  0  0  0  0
    0.4760    1.0998    0.1366 C   0  0  0  0  0  0  0  0  0  0  0  0
   -0.9235    1.2259    0.1179 C   0  0  0  0  0  0  0  0  0  0  0  0
   -1.4582    2.4508    0.1816 O   0  0  0  0  0  0  0  0  0  0  0  0
    1.1798    2.2630    0.2765 O   0  0  0  0  0  0  0  0  0  0  0  0
    2.1404    2.5941   -0.7253 C   0  0  0  0  0  0  0  0  0  0  0  0
    2.7555   -0.3479    0.1899 Cl  0  0  0  0  0  0  0  0  0  0  0  0
    0.7766   -2.6552   -0.1240 C   0  0  0  0  0  0  0  0  0  0  0  0
    0.1105   -3.6704   -0.1992 O   0  0  0  0  0  0  0  0  0  0  0  0
   -4.9706   -0.2946   -0.0614 H   0  0  0  0  0  0  0  0  0  0  0  0
   -3.8682   -1.4246    0.7693 H   0  0  0  0  0  0  0  0  0  0  0  0
   -3.8341   -1.2883   -1.0118 H   0  0  0  0  0  0  0  0  0  0  0  0
   -1.7446   -2.0688   -0.1397 H   0  0  0  0  0  0  0  0  0  0  0  0
   -2.4317    2.3883    0.1767 H   0  0  0  0  0  0  0  0  0  0  0  0
    3.1198    2.1714   -0.4948 H   0  0  0  0  0  0  0  0  0  0  0  0
    2.2000    3.6804   -0.7140 H   0  0  0  0  0  0  0  0  0  0  0  0
    1.8142    2.2518   -1.7083 H   0  0  0  0  0  0  0  0  0  0  0  0
    1.8763   -2.7189   -0.1233 H   0  0  0  0  0  0  0  0  0  0  0  0
  1  2  1  0  0  0  0
  2  3  1  0  0  0  0
  3  4  4  0  0  0  0
  4  5  4  0  0  0  0
  5  6  4  0  0  0  0
  6  7  4  0  0  0  0
  3  8  4  0  0  0  0
  7  8  4  0  0  0  0
  8  9  1  0  0  0  0
  7 10  1  0  0  0  0
 10 11  1  0  0  0  0
  6 12  1  0  0  0  0
  5 13  1  0  0  0  0
 13 14  2  0  0  0  0
  1 15  1  0  0  0  0
  1 16  1  0  0  0  0
  1 17  1  0  0  0  0
  4 18  1  0  0  0  0
  9 19  1  0  0  0  0
 11 20  1  0  0  0  0
 11 21  1  0  0  0  0
 11 22  1  0  0  0  0
 13 23  1  0  0  0  0
M  END
