 xtb: 6.7.1 (edcfbbe)
          04112516113D

 17 16  0     0  0            999 V2000
   -3.6015   -0.1891   -0.6717 C   0  0  0  0  0  0  0  0  0  0  0  0
   -2.4767   -0.7939    0.1616 C   0  0  0  0  0  0  0  0  0  0  0  0
   -1.6586    0.2496    0.9249 C   0  0  0  0  0  0  0  0  0  0  0  0
   -0.9355    1.2731    0.0483 C   0  0  0  0  0  0  0  0  0  0  0  0
    0.0938    0.6752   -0.8899 C   0  0  0  0  0  0  0  0  0  0  0  0
    1.5606   -0.2166    0.0892 Br  0  0  0  0  0  0  0  0  0  0  0  0
   -4.2316    0.4459   -0.0532 H   0  0  0  0  0  0  0  0  0  0  0  0
   -4.2193   -0.9781   -1.0933 H   0  0  0  0  0  0  0  0  0  0  0  0
   -3.2108    0.4060   -1.4934 H   0  0  0  0  0  0  0  0  0  0  0  0
   -2.9095   -1.4775    0.8951 H   0  0  0  0  0  0  0  0  0  0  0  0
   -1.8240   -1.3893   -0.4801 H   0  0  0  0  0  0  0  0  0  0  0  0
   -2.3245    0.7931    1.5980 H   0  0  0  0  0  0  0  0  0  0  0  0
   -0.9208   -0.2690    1.5424 H   0  0  0  0  0  0  0  0  0  0  0  0
   -1.6589    1.8100   -0.5683 H   0  0  0  0  0  0  0  0  0  0  0  0
   -0.4462    2.0033    0.6971 H   0  0  0  0  0  0  0  0  0  0  0  0
    0.5794    1.4416   -1.4910 H   0  0  0  0  0  0  0  0  0  0  0  0
   -0.3282   -0.0908   -1.5362 H   0  0  0  0  0  0  0  0  0  0  0  0
  1  2  1  0  0  0  0
  2  3  1  0  0  0  0
  3  4  1  0  0  0  0
  4  5  1  0  0  0  0
  5  6  1  0  0  0  0
  1  7  1  0  0  0  0
  1  8  1  0  0  0  0
  1  9  1  0  0  0  0
  2 10  1  0  0  0  0
  2 11  1  0  0  0  0
  3 12  1  0  0  0  0
  3 13  1  0  0  0  0
  4 14  1  0  0  0  0
  4 15  1  0  0  0  0
  5 16  1  0  0  0  0
  5 17  1  0  0  0  0
M  END
