 xtb: 6.7.1 (edcfbbe)
          04112516153D

 26 25  0     0  0            999 V2000
    2.6922   -0.9713   -1.1515 C   0  0  0  0  0  0  0  0  0  0  0  0
    1.5353   -0.2829   -0.4368 C   0  0  0  0  0  0  0  0  0  0  0  0
    0.8322   -1.2327    0.5289 C   0  0  0  0  0  0  0  0  0  0  0  0
    0.6282    0.3321   -1.4606 C   0  0  0  0  0  0  0  0  0  0  0  0
   -0.5648    0.7328   -1.4166 N   0  0  0  0  0  0  0  0  0  0  0  0
   -1.2557    0.6564   -0.1762 O   0  0  0  0  0  0  0  0  0  0  0  0
   -2.2671   -0.2599   -0.1238 C   0  0  0  0  0  0  0  0  0  0  0  0
   -2.3778   -1.1832   -0.9079 O   0  0  0  0  0  0  0  0  0  0  0  0
   -3.0453   -0.0088    0.9287 N   0  0  0  0  0  0  0  0  0  0  0  0
   -4.1606   -0.8504    1.3011 C   0  0  0  0  0  0  0  0  0  0  0  0
    2.1457    1.2323    0.4810 S   0  0  0  0  0  0  0  0  0  0  0  0
    3.4767    0.5408    1.5125 C   0  0  0  0  0  0  0  0  0  0  0  0
    2.2973   -1.7502   -1.8011 H   0  0  0  0  0  0  0  0  0  0  0  0
    3.2496   -0.2580   -1.7543 H   0  0  0  0  0  0  0  0  0  0  0  0
    3.3667   -1.4340   -0.4365 H   0  0  0  0  0  0  0  0  0  0  0  0
    0.2562   -0.6824    1.2694 H   0  0  0  0  0  0  0  0  0  0  0  0
    1.5616   -1.8539    1.0424 H   0  0  0  0  0  0  0  0  0  0  0  0
    0.1536   -1.8839   -0.0225 H   0  0  0  0  0  0  0  0  0  0  0  0
    1.0698    0.5129   -2.4334 H   0  0  0  0  0  0  0  0  0  0  0  0
   -2.8423    0.8078    1.4852 H   0  0  0  0  0  0  0  0  0  0  0  0
   -4.2184   -1.6650    0.5822 H   0  0  0  0  0  0  0  0  0  0  0  0
   -5.0865   -0.2779    1.2757 H   0  0  0  0  0  0  0  0  0  0  0  0
   -4.0081   -1.2559    2.3004 H   0  0  0  0  0  0  0  0  0  0  0  0
    4.3162    0.2487    0.8917 H   0  0  0  0  0  0  0  0  0  0  0  0
    3.0962   -0.2914    2.0939 H   0  0  0  0  0  0  0  0  0  0  0  0
    3.7673    1.3520    2.1714 H   0  0  0  0  0  0  0  0  0  0  0  0
  1  2  1  0  0  0  0
  2  3  1  0  0  0  0
  2  4  1  0  0  0  0
  4  5  2  0  0  0  0
  5  6  1  0  0  0  0
  6  7  1  0  0  0  0
  7  8  2  0  0  0  0
  7  9  4  0  0  0  0
  9 10  1  0  0  0  0
  2 11  1  0  0  0  0
 11 12  1  0  0  0  0
  1 13  1  0  0  0  0
  1 14  1  0  0  0  0
  1 15  1  0  0  0  0
  3 16  1  0  0  0  0
  3 17  1  0  0  0  0
  3 18  1  0  0  0  0
  4 19  1  0  0  0  0
  9 20  1  0  0  0  0
 10 21  1  0  0  0  0
 10 22  1  0  0  0  0
 10 23  1  0  0  0  0
 12 24  1  0  0  0  0
 12 25  1  0  0  0  0
 12 26  1  0  0  0  0
M  END
