 xtb: 6.7.1 (edcfbbe)
          04112516153D

 26 25  0     0  0            999 V2000
    1.6491   -1.3885   -1.2767 C   0  0  0  0  0  0  0  0  0  0  0  0
    1.6281   -0.2976   -0.2020 C   0  0  0  0  0  0  0  0  0  0  0  0
    1.2712   -0.8805    1.1614 C   0  0  0  0  0  0  0  0  0  0  0  0
    0.7055    0.7961   -0.6546 C   0  0  0  0  0  0  0  0  0  0  0  0
   -0.5516    0.8727   -0.6491 N   0  0  0  0  0  0  0  0  0  0  0  0
   -1.2638   -0.2261   -0.1326 O   0  0  0  0  0  0  0  0  0  0  0  0
   -2.6203   -0.0005   -0.0257 C   0  0  0  0  0  0  0  0  0  0  0  0
   -3.1508    1.0640   -0.2515 O   0  0  0  0  0  0  0  0  0  0  0  0
   -3.2183   -1.1233    0.3733 N   0  0  0  0  0  0  0  0  0  0  0  0
   -4.6441   -1.2122    0.6001 C   0  0  0  0  0  0  0  0  0  0  0  0
    3.3483    0.4004   -0.1544 S   0  0  0  0  0  0  0  0  0  0  0  0
    3.2129    1.6271    1.1793 C   0  0  0  0  0  0  0  0  0  0  0  0
    1.9878   -0.9777   -2.2252 H   0  0  0  0  0  0  0  0  0  0  0  0
    2.3293   -2.1813   -0.9772 H   0  0  0  0  0  0  0  0  0  0  0  0
    0.6499   -1.7986   -1.4044 H   0  0  0  0  0  0  0  0  0  0  0  0
    1.0844   -0.0925    1.8878 H   0  0  0  0  0  0  0  0  0  0  0  0
    2.0914   -1.5023    1.5127 H   0  0  0  0  0  0  0  0  0  0  0  0
    0.3759   -1.4907    1.0814 H   0  0  0  0  0  0  0  0  0  0  0  0
    1.1615    1.6664   -1.1100 H   0  0  0  0  0  0  0  0  0  0  0  0
   -2.6567   -1.9478    0.5210 H   0  0  0  0  0  0  0  0  0  0  0  0
   -4.8429   -1.4833    1.6360 H   0  0  0  0  0  0  0  0  0  0  0  0
   -5.0836   -1.9554   -0.0636 H   0  0  0  0  0  0  0  0  0  0  0  0
   -5.0770   -0.2365    0.3899 H   0  0  0  0  0  0  0  0  0  0  0  0
    3.2023    1.1262    2.1420 H   0  0  0  0  0  0  0  0  0  0  0  0
    2.3161    2.2222    1.0364 H   0  0  0  0  0  0  0  0  0  0  0  0
    4.0942    2.2541    1.0971 H   0  0  0  0  0  0  0  0  0  0  0  0
  1  2  1  0  0  0  0
  2  3  1  0  0  0  0
  2  4  1  0  0  0  0
  4  5  2  0  0  0  0
  5  6  1  0  0  0  0
  6  7  1  0  0  0  0
  7  8  2  0  0  0  0
  7  9  4  0  0  0  0
  9 10  1  0  0  0  0
  2 11  1  0  0  0  0
 11 12  1  0  0  0  0
  1 13  1  0  0  0  0
  1 14  1  0  0  0  0
  1 15  1  0  0  0  0
  3 16  1  0  0  0  0
  3 17  1  0  0  0  0
  3 18  1  0  0  0  0
  4 19  1  0  0  0  0
  9 20  1  0  0  0  0
 10 21  1  0  0  0  0
 10 22  1  0  0  0  0
 10 23  1  0  0  0  0
 12 24  1  0  0  0  0
 12 25  1  0  0  0  0
 12 26  1  0  0  0  0
M  END
