 xtb: 6.7.1 (edcfbbe)
          04112516153D

 26 25  0     0  0            999 V2000
    1.2264   -0.3763   -1.6696 C   0  0  0  0  0  0  0  0  0  0  0  0
    1.8632   -0.6207   -0.3134 C   0  0  0  0  0  0  0  0  0  0  0  0
    2.8882   -1.7504   -0.3891 C   0  0  0  0  0  0  0  0  0  0  0  0
    0.9502   -0.8452    0.8445 C   0  0  0  0  0  0  0  0  0  0  0  0
   -0.2862   -0.6753    1.0369 N   0  0  0  0  0  0  0  0  0  0  0  0
   -1.0786   -0.2572   -0.0545 O   0  0  0  0  0  0  0  0  0  0  0  0
   -2.4140   -0.1300    0.2543 C   0  0  0  0  0  0  0  0  0  0  0  0
   -2.8743   -0.2768    1.3649 O   0  0  0  0  0  0  0  0  0  0  0  0
   -3.0860    0.1876   -0.8535 N   0  0  0  0  0  0  0  0  0  0  0  0
   -4.5184    0.3869   -0.8702 C   0  0  0  0  0  0  0  0  0  0  0  0
    2.8291    0.8847    0.2421 S   0  0  0  0  0  0  0  0  0  0  0  0
    1.5735    2.1940    0.2848 C   0  0  0  0  0  0  0  0  0  0  0  0
    0.5545    0.4764   -1.6495 H   0  0  0  0  0  0  0  0  0  0  0  0
    2.0067   -0.1941   -2.4050 H   0  0  0  0  0  0  0  0  0  0  0  0
    0.6575   -1.2549   -1.9668 H   0  0  0  0  0  0  0  0  0  0  0  0
    3.6327   -1.5199   -1.1465 H   0  0  0  0  0  0  0  0  0  0  0  0
    2.3901   -2.6810   -0.6510 H   0  0  0  0  0  0  0  0  0  0  0  0
    3.3950   -1.8752    0.5644 H   0  0  0  0  0  0  0  0  0  0  0  0
    1.4472   -1.1641    1.7532 H   0  0  0  0  0  0  0  0  0  0  0  0
   -2.5791    0.2636   -1.7220 H   0  0  0  0  0  0  0  0  0  0  0  0
   -4.7526    1.3912   -1.2199 H   0  0  0  0  0  0  0  0  0  0  0  0
   -4.8846    0.2606    0.1464 H   0  0  0  0  0  0  0  0  0  0  0  0
   -4.9924   -0.3471   -1.5206 H   0  0  0  0  0  0  0  0  0  0  0  0
    2.0271    3.0173    0.8264 H   0  0  0  0  0  0  0  0  0  0  0  0
    0.6944    1.8434    0.8175 H   0  0  0  0  0  0  0  0  0  0  0  0
    1.3255    2.5047   -0.7252 H   0  0  0  0  0  0  0  0  0  0  0  0
  1  2  1  0  0  0  0
  2  3  1  0  0  0  0
  2  4  1  0  0  0  0
  4  5  2  0  0  0  0
  5  6  1  0  0  0  0
  6  7  1  0  0  0  0
  7  8  2  0  0  0  0
  7  9  4  0  0  0  0
  9 10  1  0  0  0  0
  2 11  1  0  0  0  0
 11 12  1  0  0  0  0
  1 13  1  0  0  0  0
  1 14  1  0  0  0  0
  1 15  1  0  0  0  0
  3 16  1  0  0  0  0
  3 17  1  0  0  0  0
  3 18  1  0  0  0  0
  4 19  1  0  0  0  0
  9 20  1  0  0  0  0
 10 21  1  0  0  0  0
 10 22  1  0  0  0  0
 10 23  1  0  0  0  0
 12 24  1  0  0  0  0
 12 25  1  0  0  0  0
 12 26  1  0  0  0  0
M  END
