 xtb: 6.7.1 (edcfbbe)
          04112514233D

 23 22  0     0  0            999 V2000
    2.9131    1.3943   -0.3023 C   0  0  0  0  0  0  0  0  0  0  0  0
    2.5722   -0.0948   -0.2993 C   0  0  0  0  0  0  0  0  0  0  0  0
    2.7985   -0.6927    1.0881 C   0  0  0  0  0  0  0  0  0  0  0  0
    1.1519   -0.3631   -0.8165 C   0  0  0  0  0  0  0  0  0  0  0  0
    0.0469    0.2807    0.0117 C   0  0  0  0  0  0  0  0  0  0  0  0
   -1.2089   -0.0329   -0.6115 O   0  0  0  0  0  0  0  0  0  0  0  0
   -2.2939   -0.1206    0.1459 C   0  0  0  0  0  0  0  0  0  0  0  0
   -2.2880    0.0597    1.3477 O   0  0  0  0  0  0  0  0  0  0  0  0
   -3.5069   -0.4697   -0.6630 C   0  0  0  0  0  0  0  0  0  0  0  0
    2.3466    1.9235    0.4596 H   0  0  0  0  0  0  0  0  0  0  0  0
    2.6947    1.8368   -1.2708 H   0  0  0  0  0  0  0  0  0  0  0  0
    3.9704    1.5340   -0.0923 H   0  0  0  0  0  0  0  0  0  0  0  0
    3.2514   -0.5975   -0.9970 H   0  0  0  0  0  0  0  0  0  0  0  0
    2.2031   -0.1755    1.8363 H   0  0  0  0  0  0  0  0  0  0  0  0
    3.8451   -0.6005    1.3674 H   0  0  0  0  0  0  0  0  0  0  0  0
    2.5323   -1.7467    1.1011 H   0  0  0  0  0  0  0  0  0  0  0  0
    0.9768   -1.4404   -0.8399 H   0  0  0  0  0  0  0  0  0  0  0  0
    1.0641    0.0099   -1.8383 H   0  0  0  0  0  0  0  0  0  0  0  0
    0.0252   -0.0939    1.0392 H   0  0  0  0  0  0  0  0  0  0  0  0
    0.1425    1.3696    0.0327 H   0  0  0  0  0  0  0  0  0  0  0  0
   -3.2383   -0.5649   -1.7092 H   0  0  0  0  0  0  0  0  0  0  0  0
   -4.2562    0.3063   -0.5297 H   0  0  0  0  0  0  0  0  0  0  0  0
   -3.9235   -1.4017   -0.2901 H   0  0  0  0  0  0  0  0  0  0  0  0
  1  2  1  0  0  0  0
  2  3  1  0  0  0  0
  2  4  1  0  0  0  0
  4  5  1  0  0  0  0
  5  6  1  0  0  0  0
  6  7  1  0  0  0  0
  7  8  2  0  0  0  0
  7  9  1  0  0  0  0
  1 10  1  0  0  0  0
  1 11  1  0  0  0  0
  1 12  1  0  0  0  0
  2 13  1  0  0  0  0
  3 14  1  0  0  0  0
  3 15  1  0  0  0  0
  3 16  1  0  0  0  0
  4 17  1  0  0  0  0
  4 18  1  0  0  0  0
  5 19  1  0  0  0  0
  5 20  1  0  0  0  0
  9 21  1  0  0  0  0
  9 22  1  0  0  0  0
  9 23  1  0  0  0  0
M  END
