 xtb: 6.7.1 (edcfbbe)
          04112514203D

 23 22  0     0  0            999 V2000
    3.0292   -0.1698   -0.6969 C   0  0  0  0  0  0  0  0  0  0  0  0
    1.7828   -0.6727    0.0226 C   0  0  0  0  0  0  0  0  0  0  0  0
    0.8669    0.4800    0.4335 C   0  0  0  0  0  0  0  0  0  0  0  0
   -0.4082    0.0171    1.1532 C   0  0  0  0  0  0  0  0  0  0  0  0
   -1.6795   -0.0491    0.2918 C   0  0  0  0  0  0  0  0  0  0  0  0
   -2.1388    1.3409   -0.1465 C   0  0  0  0  0  0  0  0  0  0  0  0
   -1.5227   -0.9653   -0.9192 C   0  0  0  0  0  0  0  0  0  0  0  0
    2.7561    0.3662   -1.6034 H   0  0  0  0  0  0  0  0  0  0  0  0
    3.5921    0.5068   -0.0573 H   0  0  0  0  0  0  0  0  0  0  0  0
    3.6749   -1.0006   -0.9709 H   0  0  0  0  0  0  0  0  0  0  0  0
    2.0814   -1.2275    0.9154 H   0  0  0  0  0  0  0  0  0  0  0  0
    1.2445   -1.3612   -0.6295 H   0  0  0  0  0  0  0  0  0  0  0  0
    1.4317    1.1403    1.0957 H   0  0  0  0  0  0  0  0  0  0  0  0
    0.6086    1.0626   -0.4513 H   0  0  0  0  0  0  0  0  0  0  0  0
   -0.2290   -0.9711    1.5833 H   0  0  0  0  0  0  0  0  0  0  0  0
   -0.6154    0.6949    1.9845 H   0  0  0  0  0  0  0  0  0  0  0  0
   -2.4658   -0.4704    0.9308 H   0  0  0  0  0  0  0  0  0  0  0  0
   -1.4148    1.8007   -0.8145 H   0  0  0  0  0  0  0  0  0  0  0  0
   -3.0880    1.2739   -0.6731 H   0  0  0  0  0  0  0  0  0  0  0  0
   -2.2696    1.9899    0.7163 H   0  0  0  0  0  0  0  0  0  0  0  0
   -0.7937   -0.5627   -1.6175 H   0  0  0  0  0  0  0  0  0  0  0  0
   -2.4727   -1.0611   -1.4407 H   0  0  0  0  0  0  0  0  0  0  0  0
   -1.2019   -1.9572   -0.6096 H   0  0  0  0  0  0  0  0  0  0  0  0
  1  2  1  0  0  0  0
  2  3  1  0  0  0  0
  3  4  1  0  0  0  0
  4  5  1  0  0  0  0
  5  6  1  0  0  0  0
  5  7  1  0  0  0  0
  1  8  1  0  0  0  0
  1  9  1  0  0  0  0
  1 10  1  0  0  0  0
  2 11  1  0  0  0  0
  2 12  1  0  0  0  0
  3 13  1  0  0  0  0
  3 14  1  0  0  0  0
  4 15  1  0  0  0  0
  4 16  1  0  0  0  0
  5 17  1  0  0  0  0
  6 18  1  0  0  0  0
  6 19  1  0  0  0  0
  6 20  1  0  0  0  0
  7 21  1  0  0  0  0
  7 22  1  0  0  0  0
  7 23  1  0  0  0  0
M  END
