 xtb: 6.7.1 (edcfbbe)
          04112514243D

 14 13  0     0  0            999 V2000
    0.3609    0.8582    0.6735 C   0  0  0  0  0  0  0  0  0  0  0  0
   -0.3609    0.8583   -0.6735 C   0  0  0  0  0  0  0  0  0  0  0  0
   -1.8704    0.8478   -0.5211 C   0  0  0  0  0  0  0  0  0  0  0  0
   -2.4402   -0.7003    0.2083 Cl  0  0  0  0  0  0  0  0  0  0  0  0
    1.8704    0.8478    0.5212 C   0  0  0  0  0  0  0  0  0  0  0  0
    2.4402   -0.7003   -0.2083 Cl  0  0  0  0  0  0  0  0  0  0  0  0
    0.0460   -0.0105    1.2537 H   0  0  0  0  0  0  0  0  0  0  0  0
    0.0915    1.7563    1.2321 H   0  0  0  0  0  0  0  0  0  0  0  0
   -0.0460   -0.0104   -1.2537 H   0  0  0  0  0  0  0  0  0  0  0  0
   -0.0915    1.7564   -1.2321 H   0  0  0  0  0  0  0  0  0  0  0  0
   -2.2133    1.6370    0.1450 H   0  0  0  0  0  0  0  0  0  0  0  0
   -2.3685    0.9219   -1.4854 H   0  0  0  0  0  0  0  0  0  0  0  0
    2.2133    1.6370   -0.1450 H   0  0  0  0  0  0  0  0  0  0  0  0
    2.3685    0.9219    1.4854 H   0  0  0  0  0  0  0  0  0  0  0  0
  1  2  1  0  0  0  0
  2  3  1  0  0  0  0
  3  4  1  0  0  0  0
  1  5  1  0  0  0  0
  5  6  1  0  0  0  0
  1  7  1  0  0  0  0
  1  8  1  0  0  0  0
  2  9  1  0  0  0  0
  2 10  1  0  0  0  0
  3 11  1  0  0  0  0
  3 12  1  0  0  0  0
  5 13  1  0  0  0  0
  5 14  1  0  0  0  0
M  END
