 xtb: 6.7.1 (edcfbbe)
          04112516153D

 26 25  0     0  0            999 V2000
    1.1215   -0.0202   -1.5442 C   0  0  0  0  0  0  0  0  0  0  0  0
    1.6795   -0.3634   -0.1687 C   0  0  0  0  0  0  0  0  0  0  0  0
    1.9747   -1.8621   -0.0534 C   0  0  0  0  0  0  0  0  0  0  0  0
    0.8076    0.0265    0.9870 C   0  0  0  0  0  0  0  0  0  0  0  0
   -0.4435    0.0630    1.1274 N   0  0  0  0  0  0  0  0  0  0  0  0
   -1.2359   -0.3140    0.0274 O   0  0  0  0  0  0  0  0  0  0  0  0
   -2.5870   -0.1343    0.2358 C   0  0  0  0  0  0  0  0  0  0  0  0
   -3.0588    0.3906    1.2196 O   0  0  0  0  0  0  0  0  0  0  0  0
   -3.2555   -0.6147   -0.8130 N   0  0  0  0  0  0  0  0  0  0  0  0
   -4.6977   -0.5654   -0.9118 C   0  0  0  0  0  0  0  0  0  0  0  0
    3.3117    0.4935    0.0737 S   0  0  0  0  0  0  0  0  0  0  0  0
    2.8306    2.2400   -0.0623 C   0  0  0  0  0  0  0  0  0  0  0  0
    1.9118   -0.1134   -2.2857 H   0  0  0  0  0  0  0  0  0  0  0  0
    0.3171   -0.7039   -1.8008 H   0  0  0  0  0  0  0  0  0  0  0  0
    0.7301    0.9945   -1.5671 H   0  0  0  0  0  0  0  0  0  0  0  0
    2.4441   -2.0841    0.9020 H   0  0  0  0  0  0  0  0  0  0  0  0
    2.6493   -2.1612   -0.8512 H   0  0  0  0  0  0  0  0  0  0  0  0
    1.0485   -2.4270   -0.1338 H   0  0  0  0  0  0  0  0  0  0  0  0
    1.3236    0.2920    1.9020 H   0  0  0  0  0  0  0  0  0  0  0  0
   -2.7358   -1.0322   -1.5696 H   0  0  0  0  0  0  0  0  0  0  0  0
   -5.0778   -0.0856   -0.0124 H   0  0  0  0  0  0  0  0  0  0  0  0
   -5.1028   -1.5737   -0.9846 H   0  0  0  0  0  0  0  0  0  0  0  0
   -4.9945    0.0123   -1.7859 H   0  0  0  0  0  0  0  0  0  0  0  0
    1.9578    2.4249    0.5567 H   0  0  0  0  0  0  0  0  0  0  0  0
    2.6357    2.4894   -1.1004 H   0  0  0  0  0  0  0  0  0  0  0  0
    3.6766    2.8114    0.3043 H   0  0  0  0  0  0  0  0  0  0  0  0
  1  2  1  0  0  0  0
  2  3  1  0  0  0  0
  2  4  1  0  0  0  0
  4  5  2  0  0  0  0
  5  6  1  0  0  0  0
  6  7  1  0  0  0  0
  7  8  2  0  0  0  0
  7  9  4  0  0  0  0
  9 10  1  0  0  0  0
  2 11  1  0  0  0  0
 11 12  1  0  0  0  0
  1 13  1  0  0  0  0
  1 14  1  0  0  0  0
  1 15  1  0  0  0  0
  3 16  1  0  0  0  0
  3 17  1  0  0  0  0
  3 18  1  0  0  0  0
  4 19  1  0  0  0  0
  9 20  1  0  0  0  0
 10 21  1  0  0  0  0
 10 22  1  0  0  0  0
 10 23  1  0  0  0  0
 12 24  1  0  0  0  0
 12 25  1  0  0  0  0
 12 26  1  0  0  0  0
M  END
