 xtb: 6.7.1 (edcfbbe)
          04112516113D

 20 19  0     0  0            999 V2000
    3.9593    0.0669    0.2758 C   0  0  0  0  0  0  0  0  0  0  0  0
    2.6098   -0.2923   -0.2606 C   0  0  0  0  0  0  0  0  0  0  0  0
    2.3178   -1.3500   -0.7752 O   0  0  0  0  0  0  0  0  0  0  0  0
    1.7459    0.7145   -0.1074 O   0  0  0  0  0  0  0  0  0  0  0  0
    0.3964    0.5446   -0.5333 C   0  0  0  0  0  0  0  0  0  0  0  0
   -0.5352    0.9460    0.6135 C   0  0  0  0  0  0  0  0  0  0  0  0
   -1.8908    0.9352    0.1764 O   0  0  0  0  0  0  0  0  0  0  0  0
   -2.5629   -0.2196    0.2264 C   0  0  0  0  0  0  0  0  0  0  0  0
   -2.0719   -1.2520    0.6283 O   0  0  0  0  0  0  0  0  0  0  0  0
   -3.9715   -0.0518   -0.2465 C   0  0  0  0  0  0  0  0  0  0  0  0
    3.9496    1.0834    0.6524 H   0  0  0  0  0  0  0  0  0  0  0  0
    4.6966   -0.0431   -0.5152 H   0  0  0  0  0  0  0  0  0  0  0  0
    4.2182   -0.6303    1.0687 H   0  0  0  0  0  0  0  0  0  0  0  0
    0.2284    1.1948   -1.3965 H   0  0  0  0  0  0  0  0  0  0  0  0
    0.2325   -0.5005   -0.8189 H   0  0  0  0  0  0  0  0  0  0  0  0
   -0.3283    1.9699    0.9259 H   0  0  0  0  0  0  0  0  0  0  0  0
   -0.4131    0.2544    1.4532 H   0  0  0  0  0  0  0  0  0  0  0  0
   -4.6245   -0.0154    0.6230 H   0  0  0  0  0  0  0  0  0  0  0  0
   -4.2575   -0.9109   -0.8457 H   0  0  0  0  0  0  0  0  0  0  0  0
   -4.0658    0.8706   -0.8085 H   0  0  0  0  0  0  0  0  0  0  0  0
  1  2  1  0  0  0  0
  2  3  2  0  0  0  0
  2  4  1  0  0  0  0
  4  5  1  0  0  0  0
  5  6  1  0  0  0  0
  6  7  1  0  0  0  0
  7  8  1  0  0  0  0
  8  9  2  0  0  0  0
  8 10  1  0  0  0  0
  1 11  1  0  0  0  0
  1 12  1  0  0  0  0
  1 13  1  0  0  0  0
  5 14  1  0  0  0  0
  5 15  1  0  0  0  0
  6 16  1  0  0  0  0
  6 17  1  0  0  0  0
 10 18  1  0  0  0  0
 10 19  1  0  0  0  0
 10 20  1  0  0  0  0
M  END
