 xtb: 6.7.1 (edcfbbe)
          04112514083D

 16 15  0     0  0            999 V2000
   -1.9839   -0.8768   -0.4181 C   0  0  0  0  0  0  0  0  0  0  0  0
   -1.2926   -0.2458    0.6426 O   0  0  0  0  0  0  0  0  0  0  0  0
   -0.6417    0.9563    0.2926 C   0  0  0  0  0  0  0  0  0  0  0  0
    0.4935    0.7904   -0.7365 C   0  0  0  0  0  0  0  0  0  0  0  0
    1.3392   -0.3140   -0.4999 O   0  0  0  0  0  0  0  0  0  0  0  0
    2.0801   -0.2472    0.7033 C   0  0  0  0  0  0  0  0  0  0  0  0
   -1.2891   -1.2995   -1.1488 H   0  0  0  0  0  0  0  0  0  0  0  0
   -2.6581   -0.1714   -0.9149 H   0  0  0  0  0  0  0  0  0  0  0  0
   -2.5601   -1.6772    0.0398 H   0  0  0  0  0  0  0  0  0  0  0  0
   -1.3635    1.6802   -0.1124 H   0  0  0  0  0  0  0  0  0  0  0  0
   -0.2483    1.3380    1.2369 H   0  0  0  0  0  0  0  0  0  0  0  0
    1.0754    1.7233   -0.7529 H   0  0  0  0  0  0  0  0  0  0  0  0
    0.0829    0.6108   -1.7320 H   0  0  0  0  0  0  0  0  0  0  0  0
    2.6167    0.7046    0.7756 H   0  0  0  0  0  0  0  0  0  0  0  0
    2.7910   -1.0688    0.6580 H   0  0  0  0  0  0  0  0  0  0  0  0
    1.4330   -0.3724    1.5757 H   0  0  0  0  0  0  0  0  0  0  0  0
  1  2  1  0  0  0  0
  2  3  1  0  0  0  0
  3  4  1  0  0  0  0
  4  5  1  0  0  0  0
  5  6  1  0  0  0  0
  1  7  1  0  0  0  0
  1  8  1  0  0  0  0
  1  9  1  0  0  0  0
  3 10  1  0  0  0  0
  3 11  1  0  0  0  0
  4 12  1  0  0  0  0
  4 13  1  0  0  0  0
  6 14  1  0  0  0  0
  6 15  1  0  0  0  0
  6 16  1  0  0  0  0
M  END
