 xtb: 6.7.1 (edcfbbe)
          04112516013D

 20 19  0     0  0            999 V2000
   -2.2482   -0.3969   -1.1914 C   0  0  0  0  0  0  0  0  0  0  0  0
   -1.9871   -0.5871    0.2991 C   0  0  0  0  0  0  0  0  0  0  0  0
   -1.5804    0.7031    1.0136 C   0  0  0  0  0  0  0  0  0  0  0  0
   -0.2547    1.2850    0.5284 C   0  0  0  0  0  0  0  0  0  0  0  0
    0.8236    0.3768    0.7956 O   0  0  0  0  0  0  0  0  0  0  0  0
    1.4494   -0.2074   -0.2176 C   0  0  0  0  0  0  0  0  0  0  0  0
    1.1913    0.0034   -1.3859 O   0  0  0  0  0  0  0  0  0  0  0  0
    2.5136   -1.1484    0.2636 C   0  0  0  0  0  0  0  0  0  0  0  0
   -2.6567   -1.3094   -1.6188 H   0  0  0  0  0  0  0  0  0  0  0  0
   -2.9593    0.4092   -1.3552 H   0  0  0  0  0  0  0  0  0  0  0  0
   -1.3281   -0.1641   -1.7236 H   0  0  0  0  0  0  0  0  0  0  0  0
   -2.8937   -0.9654    0.7749 H   0  0  0  0  0  0  0  0  0  0  0  0
   -1.2056   -1.3387    0.4359 H   0  0  0  0  0  0  0  0  0  0  0  0
   -2.3477    1.4630    0.8625 H   0  0  0  0  0  0  0  0  0  0  0  0
   -1.4955    0.5041    2.0830 H   0  0  0  0  0  0  0  0  0  0  0  0
   -0.2781    1.4965   -0.5436 H   0  0  0  0  0  0  0  0  0  0  0  0
   -0.0192    2.1988    1.0784 H   0  0  0  0  0  0  0  0  0  0  0  0
    3.4655   -0.8621   -0.1757 H   0  0  0  0  0  0  0  0  0  0  0  0
    2.2774   -2.1522   -0.0809 H   0  0  0  0  0  0  0  0  0  0  0  0
    2.5687   -1.1232    1.3462 H   0  0  0  0  0  0  0  0  0  0  0  0
  1  2  1  0  0  0  0
  2  3  1  0  0  0  0
  3  4  1  0  0  0  0
  4  5  1  0  0  0  0
  5  6  1  0  0  0  0
  6  7  2  0  0  0  0
  6  8  1  0  0  0  0
  1  9  1  0  0  0  0
  1 10  1  0  0  0  0
  1 11  1  0  0  0  0
  2 12  1  0  0  0  0
  2 13  1  0  0  0  0
  3 14  1  0  0  0  0
  3 15  1  0  0  0  0
  4 16  1  0  0  0  0
  4 17  1  0  0  0  0
  8 18  1  0  0  0  0
  8 19  1  0  0  0  0
  8 20  1  0  0  0  0
M  END
