 xtb: 6.7.1 (edcfbbe)
          04112516153D

 26 25  0     0  0            999 V2000
    2.9222   -0.9722   -0.5508 C   0  0  0  0  0  0  0  0  0  0  0  0
    1.5509   -0.4414   -0.1553 C   0  0  0  0  0  0  0  0  0  0  0  0
    0.8610   -1.4077    0.7987 C   0  0  0  0  0  0  0  0  0  0  0  0
    0.7813   -0.0169   -1.3595 C   0  0  0  0  0  0  0  0  0  0  0  0
   -0.4140   -0.1287   -1.7518 N   0  0  0  0  0  0  0  0  0  0  0  0
   -1.3371   -0.8943   -0.9833 O   0  0  0  0  0  0  0  0  0  0  0  0
   -2.0562   -0.2122   -0.0478 C   0  0  0  0  0  0  0  0  0  0  0  0
   -1.8059    0.9259    0.3007 O   0  0  0  0  0  0  0  0  0  0  0  0
   -3.0290   -0.9952    0.4226 N   0  0  0  0  0  0  0  0  0  0  0  0
   -3.9444   -0.5750    1.4599 C   0  0  0  0  0  0  0  0  0  0  0  0
    1.6751    1.1809    0.7795 S   0  0  0  0  0  0  0  0  0  0  0  0
    3.0021    2.0911   -0.0726 C   0  0  0  0  0  0  0  0  0  0  0  0
    3.3991   -0.3427   -1.2965 H   0  0  0  0  0  0  0  0  0  0  0  0
    3.5596   -1.0357    0.3276 H   0  0  0  0  0  0  0  0  0  0  0  0
    2.8045   -1.9700   -0.9684 H   0  0  0  0  0  0  0  0  0  0  0  0
    0.0035   -0.9369    1.2762 H   0  0  0  0  0  0  0  0  0  0  0  0
    1.5593   -1.7003    1.5787 H   0  0  0  0  0  0  0  0  0  0  0  0
    0.5280   -2.2939    0.2626 H   0  0  0  0  0  0  0  0  0  0  0  0
    1.3588    0.5556   -2.0784 H   0  0  0  0  0  0  0  0  0  0  0  0
   -3.1306   -1.9166    0.0252 H   0  0  0  0  0  0  0  0  0  0  0  0
   -3.8570   -1.2309    2.3253 H   0  0  0  0  0  0  0  0  0  0  0  0
   -4.9677   -0.5933    1.0878 H   0  0  0  0  0  0  0  0  0  0  0  0
   -3.6807    0.4413    1.7459 H   0  0  0  0  0  0  0  0  0  0  0  0
    3.9410    1.5581    0.0217 H   0  0  0  0  0  0  0  0  0  0  0  0
    3.0603    3.0394    0.4515 H   0  0  0  0  0  0  0  0  0  0  0  0
    2.7370    2.2637   -1.1100 H   0  0  0  0  0  0  0  0  0  0  0  0
  1  2  1  0  0  0  0
  2  3  1  0  0  0  0
  2  4  1  0  0  0  0
  4  5  2  0  0  0  0
  5  6  1  0  0  0  0
  6  7  1  0  0  0  0
  7  8  2  0  0  0  0
  7  9  4  0  0  0  0
  9 10  1  0  0  0  0
  2 11  1  0  0  0  0
 11 12  1  0  0  0  0
  1 13  1  0  0  0  0
  1 14  1  0  0  0  0
  1 15  1  0  0  0  0
  3 16  1  0  0  0  0
  3 17  1  0  0  0  0
  3 18  1  0  0  0  0
  4 19  1  0  0  0  0
  9 20  1  0  0  0  0
 10 21  1  0  0  0  0
 10 22  1  0  0  0  0
 10 23  1  0  0  0  0
 12 24  1  0  0  0  0
 12 25  1  0  0  0  0
 12 26  1  0  0  0  0
M  END
