 xtb: 6.7.1 (edcfbbe)
          04112516053D

 23 23  0     0  0            999 V2000
   -4.1494   -0.4611   -0.1143 C   0  0  0  0  0  0  0  0  0  0  0  0
   -3.1677    0.5548    0.0142 O   0  0  0  0  0  0  0  0  0  0  0  0
   -1.8652    0.1961    0.0188 C   0  0  0  0  0  0  0  0  0  0  0  0
   -1.3797   -1.0900   -0.0945 C   0  0  0  0  0  0  0  0  0  0  0  0
   -0.0034   -1.3649   -0.0609 C   0  0  0  0  0  0  0  0  0  0  0  0
    0.9031   -0.3036    0.0703 C   0  0  0  0  0  0  0  0  0  0  0  0
    0.4369    1.0060    0.1462 C   0  0  0  0  0  0  0  0  0  0  0  0
   -0.9431    1.2590    0.1458 C   0  0  0  0  0  0  0  0  0  0  0  0
   -1.4025    2.5076    0.2698 O   0  0  0  0  0  0  0  0  0  0  0  0
    1.2327    2.1190    0.2908 O   0  0  0  0  0  0  0  0  0  0  0  0
    2.1101    2.4298   -0.7927 C   0  0  0  0  0  0  0  0  0  0  0  0
    2.5993   -0.6184    0.1880 Cl  0  0  0  0  0  0  0  0  0  0  0  0
    0.4049   -2.7561   -0.1539 C   0  0  0  0  0  0  0  0  0  0  0  0
    1.5372   -3.2000   -0.1343 O   0  0  0  0  0  0  0  0  0  0  0  0
   -4.0428   -0.9918   -1.0628 H   0  0  0  0  0  0  0  0  0  0  0  0
   -5.1013    0.0633   -0.0910 H   0  0  0  0  0  0  0  0  0  0  0  0
   -4.0953   -1.1660    0.7181 H   0  0  0  0  0  0  0  0  0  0  0  0
   -2.0551   -1.9227   -0.1979 H   0  0  0  0  0  0  0  0  0  0  0  0
   -0.6476    3.1162    0.3954 H   0  0  0  0  0  0  0  0  0  0  0  0
    2.8708    1.6623   -0.9278 H   0  0  0  0  0  0  0  0  0  0  0  0
    2.5801    3.3688   -0.5127 H   0  0  0  0  0  0  0  0  0  0  0  0
    1.5443    2.5514   -1.7191 H   0  0  0  0  0  0  0  0  0  0  0  0
   -0.4473   -3.4526   -0.2515 H   0  0  0  0  0  0  0  0  0  0  0  0
  1  2  1  0  0  0  0
  2  3  1  0  0  0  0
  3  4  4  0  0  0  0
  4  5  4  0  0  0  0
  5  6  4  0  0  0  0
  6  7  4  0  0  0  0
  3  8  4  0  0  0  0
  7  8  4  0  0  0  0
  8  9  1  0  0  0  0
  7 10  1  0  0  0  0
 10 11  1  0  0  0  0
  6 12  1  0  0  0  0
  5 13  1  0  0  0  0
 13 14  2  0  0  0  0
  1 15  1  0  0  0  0
  1 16  1  0  0  0  0
  1 17  1  0  0  0  0
  4 18  1  0  0  0  0
  9 19  1  0  0  0  0
 11 20  1  0  0  0  0
 11 21  1  0  0  0  0
 11 22  1  0  0  0  0
 13 23  1  0  0  0  0
M  END
