 xtb: 6.7.1 (edcfbbe)
          04112516113D

 17 16  0     0  0            999 V2000
   -3.3033    0.4341    0.7776 C   0  0  0  0  0  0  0  0  0  0  0  0
   -2.2611    0.0251   -0.2564 C   0  0  0  0  0  0  0  0  0  0  0  0
   -0.8432    0.1462    0.2979 C   0  0  0  0  0  0  0  0  0  0  0  0
    0.1971   -0.2659   -0.7393 C   0  0  0  0  0  0  0  0  0  0  0  0
    1.6211   -0.1718   -0.2636 C   0  0  0  0  0  0  0  0  0  0  0  0
    2.5801   -0.4519   -0.9566 O   0  0  0  0  0  0  0  0  0  0  0  0
    1.7508    0.2437    0.9833 O   0  0  0  0  0  0  0  0  0  0  0  0
   -3.2344   -0.1993    1.6588 H   0  0  0  0  0  0  0  0  0  0  0  0
   -3.1499    1.4657    1.0855 H   0  0  0  0  0  0  0  0  0  0  0  0
   -4.3054    0.3434    0.3663 H   0  0  0  0  0  0  0  0  0  0  0  0
   -2.3596    0.6585   -1.1405 H   0  0  0  0  0  0  0  0  0  0  0  0
   -2.4423   -1.0064   -0.5653 H   0  0  0  0  0  0  0  0  0  0  0  0
   -0.6593    1.1767    0.6063 H   0  0  0  0  0  0  0  0  0  0  0  0
   -0.7428   -0.4845    1.1827 H   0  0  0  0  0  0  0  0  0  0  0  0
    0.1171    0.3548   -1.6352 H   0  0  0  0  0  0  0  0  0  0  0  0
    0.0348   -1.2979   -1.0601 H   0  0  0  0  0  0  0  0  0  0  0  0
    2.6843    0.2951    1.2669 H   0  0  0  0  0  0  0  0  0  0  0  0
  1  2  1  0  0  0  0
  2  3  1  0  0  0  0
  3  4  1  0  0  0  0
  4  5  1  0  0  0  0
  5  6  2  0  0  0  0
  5  7  1  0  0  0  0
  1  8  1  0  0  0  0
  1  9  1  0  0  0  0
  1 10  1  0  0  0  0
  2 11  1  0  0  0  0
  2 12  1  0  0  0  0
  3 13  1  0  0  0  0
  3 14  1  0  0  0  0
  4 15  1  0  0  0  0
  4 16  1  0  0  0  0
  7 17  1  0  0  0  0
M  END
