 xtb: 6.7.1 (edcfbbe)
          04112516053D

 23 23  0     0  0            999 V2000
   -3.9763   -0.7516   -0.0951 C   0  0  0  0  0  0  0  0  0  0  0  0
   -3.0836    0.3448    0.0189 O   0  0  0  0  0  0  0  0  0  0  0  0
   -1.7567    0.0928    0.0249 C   0  0  0  0  0  0  0  0  0  0  0  0
   -1.1689   -1.1514   -0.0711 C   0  0  0  0  0  0  0  0  0  0  0  0
    0.2234   -1.3092   -0.0388 C   0  0  0  0  0  0  0  0  0  0  0  0
    1.0427   -0.1804    0.0776 C   0  0  0  0  0  0  0  0  0  0  0  0
    0.4771    1.0889    0.1337 C   0  0  0  0  0  0  0  0  0  0  0  0
   -0.9217    1.2268    0.1295 C   0  0  0  0  0  0  0  0  0  0  0  0
   -1.4806    2.4369    0.2292 O   0  0  0  0  0  0  0  0  0  0  0  0
    1.1683    2.2717    0.2555 O   0  0  0  0  0  0  0  0  0  0  0  0
    2.1101    2.5989   -0.7672 C   0  0  0  0  0  0  0  0  0  0  0  0
    2.7583   -0.3687    0.2101 Cl  0  0  0  0  0  0  0  0  0  0  0  0
    0.7606   -2.6573   -0.1241 C   0  0  0  0  0  0  0  0  0  0  0  0
    0.0895   -3.6682   -0.2087 O   0  0  0  0  0  0  0  0  0  0  0  0
   -3.8616   -1.4396    0.7452 H   0  0  0  0  0  0  0  0  0  0  0  0
   -3.8231   -1.2857   -1.0353 H   0  0  0  0  0  0  0  0  0  0  0  0
   -4.9692   -0.3095   -0.0783 H   0  0  0  0  0  0  0  0  0  0  0  0
   -1.7514   -2.0540   -0.1612 H   0  0  0  0  0  0  0  0  0  0  0  0
   -0.7779    3.1097    0.3243 H   0  0  0  0  0  0  0  0  0  0  0  0
    3.0254    2.0147   -0.6776 H   0  0  0  0  0  0  0  0  0  0  0  0
    2.3350    3.6517   -0.6157 H   0  0  0  0  0  0  0  0  0  0  0  0
    1.6736    2.4457   -1.7559 H   0  0  0  0  0  0  0  0  0  0  0  0
    1.8601   -2.7305   -0.1119 H   0  0  0  0  0  0  0  0  0  0  0  0
  1  2  1  0  0  0  0
  2  3  1  0  0  0  0
  3  4  4  0  0  0  0
  4  5  4  0  0  0  0
  5  6  4  0  0  0  0
  6  7  4  0  0  0  0
  3  8  4  0  0  0  0
  7  8  4  0  0  0  0
  8  9  1  0  0  0  0
  7 10  1  0  0  0  0
 10 11  1  0  0  0  0
  6 12  1  0  0  0  0
  5 13  1  0  0  0  0
 13 14  2  0  0  0  0
  1 15  1  0  0  0  0
  1 16  1  0  0  0  0
  1 17  1  0  0  0  0
  4 18  1  0  0  0  0
  9 19  1  0  0  0  0
 11 20  1  0  0  0  0
 11 21  1  0  0  0  0
 11 22  1  0  0  0  0
 13 23  1  0  0  0  0
M  END
