 xtb: 6.7.1 (edcfbbe)
          04112517193D

 23 23  0     0  0            999 V2000
   -3.9167   -0.7429   -0.2333 C   0  0  0  0  0  0  0  0  0  0  0  0
   -3.0228    0.3463   -0.0695 O   0  0  0  0  0  0  0  0  0  0  0  0
   -1.7014    0.0836    0.0196 C   0  0  0  0  0  0  0  0  0  0  0  0
   -1.1196   -1.1659   -0.0330 C   0  0  0  0  0  0  0  0  0  0  0  0
    0.2670   -1.3387    0.0867 C   0  0  0  0  0  0  0  0  0  0  0  0
    1.0857   -0.2164    0.2440 C   0  0  0  0  0  0  0  0  0  0  0  0
    0.5267    1.0567    0.2633 C   0  0  0  0  0  0  0  0  0  0  0  0
   -0.8647    1.2121    0.1749 C   0  0  0  0  0  0  0  0  0  0  0  0
   -1.4157    2.4281    0.2421 O   0  0  0  0  0  0  0  0  0  0  0  0
    1.2495    2.2191    0.4244 O   0  0  0  0  0  0  0  0  0  0  0  0
    2.0875    2.5918   -0.6716 C   0  0  0  0  0  0  0  0  0  0  0  0
    2.7926   -0.3927    0.4670 Cl  0  0  0  0  0  0  0  0  0  0  0  0
    0.7983   -2.6916    0.0451 C   0  0  0  0  0  0  0  0  0  0  0  0
    0.1270   -3.6981   -0.0774 O   0  0  0  0  0  0  0  0  0  0  0  0
   -3.8595   -1.4280    0.6152 H   0  0  0  0  0  0  0  0  0  0  0  0
   -3.7112   -1.2824   -1.1603 H   0  0  0  0  0  0  0  0  0  0  0  0
   -4.9049   -0.2922   -0.2788 H   0  0  0  0  0  0  0  0  0  0  0  0
   -1.7046   -2.0634   -0.1535 H   0  0  0  0  0  0  0  0  0  0  0  0
   -0.7173    3.0906    0.4122 H   0  0  0  0  0  0  0  0  0  0  0  0
    1.4974    2.7044   -1.5839 H   0  0  0  0  0  0  0  0  0  0  0  0
    2.8798    1.8624   -0.8395 H   0  0  0  0  0  0  0  0  0  0  0  0
    2.5221    3.5454   -0.3839 H   0  0  0  0  0  0  0  0  0  0  0  0
    1.8940   -2.7700    0.1318 H   0  0  0  0  0  0  0  0  0  0  0  0
  1  2  1  0  0  0  0
  2  3  1  0  0  0  0
  3  4  4  0  0  0  0
  4  5  4  0  0  0  0
  5  6  4  0  0  0  0
  6  7  4  0  0  0  0
  3  8  4  0  0  0  0
  7  8  4  0  0  0  0
  8  9  1  0  0  0  0
  7 10  1  0  0  0  0
 10 11  1  0  0  0  0
  6 12  1  0  0  0  0
  5 13  1  0  0  0  0
 13 14  2  0  0  0  0
  1 15  1  0  0  0  0
  1 16  1  0  0  0  0
  1 17  1  0  0  0  0
  4 18  1  0  0  0  0
  9 19  1  0  0  0  0
 11 20  1  0  0  0  0
 11 21  1  0  0  0  0
 11 22  1  0  0  0  0
 13 23  1  0  0  0  0
M  END
