 xtb: 6.7.1 (edcfbbe)
          04112516053D

 23 23  0     0  0            999 V2000
   -3.9837   -0.7897   -0.0510 C   0  0  0  0  0  0  0  0  0  0  0  0
   -3.1033    0.3199    0.0179 O   0  0  0  0  0  0  0  0  0  0  0  0
   -1.7726    0.0820    0.0161 C   0  0  0  0  0  0  0  0  0  0  0  0
   -1.1730   -1.1591   -0.0499 C   0  0  0  0  0  0  0  0  0  0  0  0
    0.2198   -1.2951   -0.0316 C   0  0  0  0  0  0  0  0  0  0  0  0
    1.0323   -0.1542    0.0469 C   0  0  0  0  0  0  0  0  0  0  0  0
    0.4559    1.1108    0.0740 C   0  0  0  0  0  0  0  0  0  0  0  0
   -0.9501    1.2244    0.0738 C   0  0  0  0  0  0  0  0  0  0  0  0
   -1.5281    2.4303    0.1310 O   0  0  0  0  0  0  0  0  0  0  0  0
    1.0791    2.3252    0.1442 O   0  0  0  0  0  0  0  0  0  0  0  0
    2.3359    2.5486   -0.4841 C   0  0  0  0  0  0  0  0  0  0  0  0
    2.7516   -0.3638    0.1634 Cl  0  0  0  0  0  0  0  0  0  0  0  0
    0.7667   -2.6401   -0.0921 C   0  0  0  0  0  0  0  0  0  0  0  0
    0.1018   -3.6582   -0.1444 O   0  0  0  0  0  0  0  0  0  0  0  0
   -3.8496   -1.4510    0.8078 H   0  0  0  0  0  0  0  0  0  0  0  0
   -3.8370   -1.3502   -0.9768 H   0  0  0  0  0  0  0  0  0  0  0  0
   -4.9817   -0.3591   -0.0336 H   0  0  0  0  0  0  0  0  0  0  0  0
   -1.7448   -2.0708   -0.1087 H   0  0  0  0  0  0  0  0  0  0  0  0
   -0.8386    3.1210    0.1594 H   0  0  0  0  0  0  0  0  0  0  0  0
    2.4088    2.0081   -1.4278 H   0  0  0  0  0  0  0  0  0  0  0  0
    3.1616    2.2673    0.1699 H   0  0  0  0  0  0  0  0  0  0  0  0
    2.3714    3.6207   -0.6695 H   0  0  0  0  0  0  0  0  0  0  0  0
    1.8665   -2.7092   -0.0932 H   0  0  0  0  0  0  0  0  0  0  0  0
  1  2  1  0  0  0  0
  2  3  1  0  0  0  0
  3  4  4  0  0  0  0
  4  5  4  0  0  0  0
  5  6  4  0  0  0  0
  6  7  4  0  0  0  0
  3  8  4  0  0  0  0
  7  8  4  0  0  0  0
  8  9  1  0  0  0  0
  7 10  1  0  0  0  0
 10 11  1  0  0  0  0
  6 12  1  0  0  0  0
  5 13  1  0  0  0  0
 13 14  2  0  0  0  0
  1 15  1  0  0  0  0
  1 16  1  0  0  0  0
  1 17  1  0  0  0  0
  4 18  1  0  0  0  0
  9 19  1  0  0  0  0
 11 20  1  0  0  0  0
 11 21  1  0  0  0  0
 11 22  1  0  0  0  0
 13 23  1  0  0  0  0
M  END
