 xtb: 6.7.1 (edcfbbe)
          04112516093D

 19 18  0     0  0            999 V2000
    2.4174   -0.7244   -0.1948 C   0  0  0  0  0  0  0  0  0  0  0  0
    1.6174    0.5008   -0.6234 C   0  0  0  0  0  0  0  0  0  0  0  0
    0.8181    1.1268    0.5209 C   0  0  0  0  0  0  0  0  0  0  0  0
   -0.2454    0.1876    1.1049 C   0  0  0  0  0  0  0  0  0  0  0  0
   -1.2310   -0.2970    0.0711 C   0  0  0  0  0  0  0  0  0  0  0  0
   -1.3633   -1.4797   -0.1831 O   0  0  0  0  0  0  0  0  0  0  0  0
   -2.0390    0.7630   -0.6187 C   0  0  0  0  0  0  0  0  0  0  0  0
    3.0634   -1.0536   -1.0052 H   0  0  0  0  0  0  0  0  0  0  0  0
    3.0382   -0.4941    0.6680 H   0  0  0  0  0  0  0  0  0  0  0  0
    1.7553   -1.5485    0.0597 H   0  0  0  0  0  0  0  0  0  0  0  0
    0.9415    0.2145   -1.4328 H   0  0  0  0  0  0  0  0  0  0  0  0
    2.3038    1.2550   -1.0147 H   0  0  0  0  0  0  0  0  0  0  0  0
    0.3398    2.0395    0.1641 H   0  0  0  0  0  0  0  0  0  0  0  0
    1.5049    1.4019    1.3233 H   0  0  0  0  0  0  0  0  0  0  0  0
    0.2300   -0.6803    1.5633 H   0  0  0  0  0  0  0  0  0  0  0  0
   -0.8011    0.7236    1.8762 H   0  0  0  0  0  0  0  0  0  0  0  0
   -2.3875    1.5040    0.0938 H   0  0  0  0  0  0  0  0  0  0  0  0
   -1.4081    1.2648   -1.3496 H   0  0  0  0  0  0  0  0  0  0  0  0
   -2.8789    0.3106   -1.1389 H   0  0  0  0  0  0  0  0  0  0  0  0
  1  2  1  0  0  0  0
  2  3  1  0  0  0  0
  3  4  1  0  0  0  0
  4  5  1  0  0  0  0
  5  6  2  0  0  0  0
  5  7  1  0  0  0  0
  1  8  1  0  0  0  0
  1  9  1  0  0  0  0
  1 10  1  0  0  0  0
  2 11  1  0  0  0  0
  2 12  1  0  0  0  0
  3 13  1  0  0  0  0
  3 14  1  0  0  0  0
  4 15  1  0  0  0  0
  4 16  1  0  0  0  0
  7 17  1  0  0  0  0
  7 18  1  0  0  0  0
  7 19  1  0  0  0  0
M  END
