 xtb: 6.7.1 (edcfbbe)
          04112516353D

 19 18  0     0  0            999 V2000
    2.8921    0.7440   -0.5607 C   0  0  0  0  0  0  0  0  0  0  0  0
    2.3047   -0.1686    0.5108 C   0  0  0  0  0  0  0  0  0  0  0  0
    0.9041   -0.6735    0.1666 C   0  0  0  0  0  0  0  0  0  0  0  0
   -0.1414    0.4383    0.1279 C   0  0  0  0  0  0  0  0  0  0  0  0
   -1.5488   -0.0847   -0.0126 C   0  0  0  0  0  0  0  0  0  0  0  0
   -1.8290   -1.2632    0.0886 O   0  0  0  0  0  0  0  0  0  0  0  0
   -2.5854    0.9657   -0.2955 C   0  0  0  0  0  0  0  0  0  0  0  0
    2.8800    0.2480   -1.5286 H   0  0  0  0  0  0  0  0  0  0  0  0
    2.3301    1.6705   -0.6386 H   0  0  0  0  0  0  0  0  0  0  0  0
    3.9220    0.9934   -0.3171 H   0  0  0  0  0  0  0  0  0  0  0  0
    2.2737    0.3624    1.4647 H   0  0  0  0  0  0  0  0  0  0  0  0
    2.9597   -1.0332    0.6366 H   0  0  0  0  0  0  0  0  0  0  0  0
    0.5931   -1.4121    0.9093 H   0  0  0  0  0  0  0  0  0  0  0  0
    0.9238   -1.1805   -0.8008 H   0  0  0  0  0  0  0  0  0  0  0  0
   -0.1031    1.0109    1.0585 H   0  0  0  0  0  0  0  0  0  0  0  0
    0.0519    1.1321   -0.6905 H   0  0  0  0  0  0  0  0  0  0  0  0
   -2.5148    1.2410   -1.3462 H   0  0  0  0  0  0  0  0  0  0  0  0
   -3.5805    0.5729   -0.1065 H   0  0  0  0  0  0  0  0  0  0  0  0
   -2.4069    1.8550    0.3006 H   0  0  0  0  0  0  0  0  0  0  0  0
  1  2  1  0  0  0  0
  2  3  1  0  0  0  0
  3  4  1  0  0  0  0
  4  5  1  0  0  0  0
  5  6  2  0  0  0  0
  5  7  1  0  0  0  0
  1  8  1  0  0  0  0
  1  9  1  0  0  0  0
  1 10  1  0  0  0  0
  2 11  1  0  0  0  0
  2 12  1  0  0  0  0
  3 13  1  0  0  0  0
  3 14  1  0  0  0  0
  4 15  1  0  0  0  0
  4 16  1  0  0  0  0
  7 17  1  0  0  0  0
  7 18  1  0  0  0  0
  7 19  1  0  0  0  0
M  END
