 xtb: 6.7.1 (edcfbbe)
          04112516253D

 17 16  0     0  0            999 V2000
   -3.4422   -0.2201   -0.0532 C   0  0  0  0  0  0  0  0  0  0  0  0
   -2.1936    0.5636    0.3321 C   0  0  0  0  0  0  0  0  0  0  0  0
   -0.9204   -0.1748   -0.0743 C   0  0  0  0  0  0  0  0  0  0  0  0
    0.3355    0.6061    0.3064 C   0  0  0  0  0  0  0  0  0  0  0  0
    1.5973   -0.1183   -0.0905 C   0  0  0  0  0  0  0  0  0  0  0  0
    1.6222   -1.1950   -0.6398 O   0  0  0  0  0  0  0  0  0  0  0  0
    2.7427    0.5019    0.2009 O   0  0  0  0  0  0  0  0  0  0  0  0
   -3.4468   -1.1923    0.4341 H   0  0  0  0  0  0  0  0  0  0  0  0
   -4.3386    0.3185    0.2436 H   0  0  0  0  0  0  0  0  0  0  0  0
   -3.4752   -0.3787   -1.1285 H   0  0  0  0  0  0  0  0  0  0  0  0
   -2.1889    0.7266    1.4118 H   0  0  0  0  0  0  0  0  0  0  0  0
   -2.2167    1.5408   -0.1545 H   0  0  0  0  0  0  0  0  0  0  0  0
   -0.8902   -1.1550    0.4057 H   0  0  0  0  0  0  0  0  0  0  0  0
   -0.9197   -0.3480   -1.1523 H   0  0  0  0  0  0  0  0  0  0  0  0
    0.3571    0.7689    1.3867 H   0  0  0  0  0  0  0  0  0  0  0  0
    0.3283    1.5821   -0.1850 H   0  0  0  0  0  0  0  0  0  0  0  0
    2.6259    1.3630    0.6423 H   0  0  0  0  0  0  0  0  0  0  0  0
  1  2  1  0  0  0  0
  2  3  1  0  0  0  0
  3  4  1  0  0  0  0
  4  5  1  0  0  0  0
  5  6  2  0  0  0  0
  5  7  1  0  0  0  0
  1  8  1  0  0  0  0
  1  9  1  0  0  0  0
  1 10  1  0  0  0  0
  2 11  1  0  0  0  0
  2 12  1  0  0  0  0
  3 13  1  0  0  0  0
  3 14  1  0  0  0  0
  4 15  1  0  0  0  0
  4 16  1  0  0  0  0
  7 17  1  0  0  0  0
M  END
