 xtb: 6.7.1 (edcfbbe)
          04112516053D

 23 23  0     0  0            999 V2000
   -4.1646   -0.5029   -0.0465 C   0  0  0  0  0  0  0  0  0  0  0  0
   -3.1880    0.5231    0.0211 O   0  0  0  0  0  0  0  0  0  0  0  0
   -1.8730    0.1701    0.0165 C   0  0  0  0  0  0  0  0  0  0  0  0
   -1.3785   -1.1135   -0.0489 C   0  0  0  0  0  0  0  0  0  0  0  0
    0.0031   -1.3493   -0.0377 C   0  0  0  0  0  0  0  0  0  0  0  0
    0.8935   -0.2634    0.0380 C   0  0  0  0  0  0  0  0  0  0  0  0
    0.4163    1.0478    0.0675 C   0  0  0  0  0  0  0  0  0  0  0  0
   -0.9785    1.2550    0.0662 C   0  0  0  0  0  0  0  0  0  0  0  0
   -1.4294    2.5163    0.1105 O   0  0  0  0  0  0  0  0  0  0  0  0
    1.1216    2.2020    0.1453 O   0  0  0  0  0  0  0  0  0  0  0  0
    2.4105    2.3409   -0.4359 C   0  0  0  0  0  0  0  0  0  0  0  0
    2.5914   -0.6021    0.1453 Cl  0  0  0  0  0  0  0  0  0  0  0  0
    0.4295   -2.7364   -0.0972 C   0  0  0  0  0  0  0  0  0  0  0  0
    1.5647   -3.1745   -0.1099 O   0  0  0  0  0  0  0  0  0  0  0  0
   -4.0689   -1.0734   -0.9724 H   0  0  0  0  0  0  0  0  0  0  0  0
   -5.1204    0.0148   -0.0300 H   0  0  0  0  0  0  0  0  0  0  0  0
   -4.0907   -1.1706    0.8141 H   0  0  0  0  0  0  0  0  0  0  0  0
   -2.0399   -1.9617   -0.1033 H   0  0  0  0  0  0  0  0  0  0  0  0
   -2.4048    2.5169    0.1108 H   0  0  0  0  0  0  0  0  0  0  0  0
    2.5166    3.4100   -0.6135 H   0  0  0  0  0  0  0  0  0  0  0  0
    2.4836    1.8002   -1.3794 H   0  0  0  0  0  0  0  0  0  0  0  0
    3.1925    2.0031    0.2451 H   0  0  0  0  0  0  0  0  0  0  0  0
   -0.4186   -3.4441   -0.1374 H   0  0  0  0  0  0  0  0  0  0  0  0
  1  2  1  0  0  0  0
  2  3  1  0  0  0  0
  3  4  4  0  0  0  0
  4  5  4  0  0  0  0
  5  6  4  0  0  0  0
  6  7  4  0  0  0  0
  3  8  4  0  0  0  0
  7  8  4  0  0  0  0
  8  9  1  0  0  0  0
  7 10  1  0  0  0  0
 10 11  1  0  0  0  0
  6 12  1  0  0  0  0
  5 13  1  0  0  0  0
 13 14  2  0  0  0  0
  1 15  1  0  0  0  0
  1 16  1  0  0  0  0
  1 17  1  0  0  0  0
  4 18  1  0  0  0  0
  9 19  1  0  0  0  0
 11 20  1  0  0  0  0
 11 21  1  0  0  0  0
 11 22  1  0  0  0  0
 13 23  1  0  0  0  0
M  END
