 xtb: 6.7.1 (edcfbbe)
          04112514233D

 23 22  0     0  0            999 V2000
    1.7078    0.6706   -1.4685 C   0  0  0  0  0  0  0  0  0  0  0  0
    2.3251   -0.2360   -0.4071 C   0  0  0  0  0  0  0  0  0  0  0  0
    2.9639    0.5951    0.7044 C   0  0  0  0  0  0  0  0  0  0  0  0
    1.3125   -1.2510    0.1452 C   0  0  0  0  0  0  0  0  0  0  0  0
    0.0678   -0.6559    0.7909 C   0  0  0  0  0  0  0  0  0  0  0  0
   -0.8606   -0.2690   -0.2333 O   0  0  0  0  0  0  0  0  0  0  0  0
   -2.0420    0.1925    0.1482 C   0  0  0  0  0  0  0  0  0  0  0  0
   -2.3611    0.3136    1.3151 O   0  0  0  0  0  0  0  0  0  0  0  0
   -2.9172    0.5288   -1.0218 C   0  0  0  0  0  0  0  0  0  0  0  0
    1.2396    0.0788   -2.2507 H   0  0  0  0  0  0  0  0  0  0  0  0
    2.4742    1.2969   -1.9191 H   0  0  0  0  0  0  0  0  0  0  0  0
    0.9522    1.3179   -1.0313 H   0  0  0  0  0  0  0  0  0  0  0  0
    3.1190   -0.8232   -0.8826 H   0  0  0  0  0  0  0  0  0  0  0  0
    3.3876   -0.0487    1.4713 H   0  0  0  0  0  0  0  0  0  0  0  0
    2.2357    1.2543    1.1706 H   0  0  0  0  0  0  0  0  0  0  0  0
    3.7599    1.2130    0.2963 H   0  0  0  0  0  0  0  0  0  0  0  0
    1.8108   -1.8663    0.8952 H   0  0  0  0  0  0  0  0  0  0  0  0
    0.9831   -1.9031   -0.6652 H   0  0  0  0  0  0  0  0  0  0  0  0
   -0.4269   -1.3931    1.4324 H   0  0  0  0  0  0  0  0  0  0  0  0
    0.2950    0.2190    1.4064 H   0  0  0  0  0  0  0  0  0  0  0  0
   -3.6897   -0.2323   -1.1054 H   0  0  0  0  0  0  0  0  0  0  0  0
   -2.3271    0.5525   -1.9313 H   0  0  0  0  0  0  0  0  0  0  0  0
   -3.4042    1.4835   -0.8460 H   0  0  0  0  0  0  0  0  0  0  0  0
  1  2  1  0  0  0  0
  2  3  1  0  0  0  0
  2  4  1  0  0  0  0
  4  5  1  0  0  0  0
  5  6  1  0  0  0  0
  6  7  1  0  0  0  0
  7  8  2  0  0  0  0
  7  9  1  0  0  0  0
  1 10  1  0  0  0  0
  1 11  1  0  0  0  0
  1 12  1  0  0  0  0
  2 13  1  0  0  0  0
  3 14  1  0  0  0  0
  3 15  1  0  0  0  0
  3 16  1  0  0  0  0
  4 17  1  0  0  0  0
  4 18  1  0  0  0  0
  5 19  1  0  0  0  0
  5 20  1  0  0  0  0
  9 21  1  0  0  0  0
  9 22  1  0  0  0  0
  9 23  1  0  0  0  0
M  END
