 xtb: 6.7.1 (edcfbbe)
          04112516133D

 33 34  0     0  0            999 V2000
   -3.1405    2.0313   -1.1405 C   0  0  0  0  0  0  0  0  0  0  0  0
   -2.6846    0.9826   -0.1692 C   0  0  0  0  0  0  0  0  0  0  0  0
   -3.3770    0.8065    1.0208 C   0  0  0  0  0  0  0  0  0  0  0  0
   -3.0009   -0.1732    1.9214 C   0  0  0  0  0  0  0  0  0  0  0  0
   -1.9008   -0.9600    1.6537 C   0  0  0  0  0  0  0  0  0  0  0  0
   -1.1700   -0.7726    0.4835 C   0  0  0  0  0  0  0  0  0  0  0  0
   -1.5839    0.1727   -0.4634 C   0  0  0  0  0  0  0  0  0  0  0  0
   -0.8898    0.3085   -1.7867 C   0  0  0  0  0  0  0  0  0  0  0  0
   -0.0733   -1.6131    0.2536 N   0  0  0  0  0  0  0  0  0  0  0  0
    1.1777   -1.2881   -0.1868 C   0  0  0  0  0  0  0  0  0  0  0  0
    1.9635   -2.3069   -0.7506 C   0  0  0  0  0  0  0  0  0  0  0  0
    3.1848   -2.0374   -1.3207 C   0  0  0  0  0  0  0  0  0  0  0  0
    3.6712   -0.7341   -1.3576 C   0  0  0  0  0  0  0  0  0  0  0  0
    2.9473    0.2714   -0.7586 C   0  0  0  0  0  0  0  0  0  0  0  0
    1.7213    0.0140   -0.1350 C   0  0  0  0  0  0  0  0  0  0  0  0
    1.1446    1.0797    0.6931 C   0  0  0  0  0  0  0  0  0  0  0  0
    0.5296    0.9085    1.7317 O   0  0  0  0  0  0  0  0  0  0  0  0
    1.4337    2.3112    0.2595 O   0  0  0  0  0  0  0  0  0  0  0  0
   -3.8941    2.6668   -0.6835 H   0  0  0  0  0  0  0  0  0  0  0  0
   -2.3072    2.6513   -1.4636 H   0  0  0  0  0  0  0  0  0  0  0  0
   -3.5770    1.5675   -2.0247 H   0  0  0  0  0  0  0  0  0  0  0  0
   -4.2255    1.4382    1.2399 H   0  0  0  0  0  0  0  0  0  0  0  0
   -3.5561   -0.3129    2.8367 H   0  0  0  0  0  0  0  0  0  0  0  0
   -1.5791   -1.7099    2.3605 H   0  0  0  0  0  0  0  0  0  0  0  0
   -1.6167    0.4946   -2.5732 H   0  0  0  0  0  0  0  0  0  0  0  0
   -0.1837    1.1402   -1.7759 H   0  0  0  0  0  0  0  0  0  0  0  0
   -0.3381   -0.5945   -2.0334 H   0  0  0  0  0  0  0  0  0  0  0  0
   -0.2073   -2.5789    0.5161 H   0  0  0  0  0  0  0  0  0  0  0  0
    1.5794   -3.3162   -0.7459 H   0  0  0  0  0  0  0  0  0  0  0  0
    3.7618   -2.8401   -1.7537 H   0  0  0  0  0  0  0  0  0  0  0  0
    4.6172   -0.5175   -1.8269 H   0  0  0  0  0  0  0  0  0  0  0  0
    3.3334    1.2785   -0.7298 H   0  0  0  0  0  0  0  0  0  0  0  0
    1.1328    2.9898    0.8920 H   0  0  0  0  0  0  0  0  0  0  0  0
  1  2  1  0  0  0  0
  2  3  4  0  0  0  0
  3  4  4  0  0  0  0
  4  5  4  0  0  0  0
  5  6  4  0  0  0  0
  2  7  4  0  0  0  0
  6  7  4  0  0  0  0
  7  8  1  0  0  0  0
  6  9  1  0  0  0  0
  9 10  1  0  0  0  0
 10 11  4  0  0  0  0
 11 12  4  0  0  0  0
 12 13  4  0  0  0  0
 13 14  4  0  0  0  0
 10 15  4  0  0  0  0
 14 15  4  0  0  0  0
 15 16  1  0  0  0  0
 16 17  2  0  0  0  0
 16 18  1  0  0  0  0
  1 19  1  0  0  0  0
  1 20  1  0  0  0  0
  1 21  1  0  0  0  0
  3 22  1  0  0  0  0
  4 23  1  0  0  0  0
  5 24  1  0  0  0  0
  8 25  1  0  0  0  0
  8 26  1  0  0  0  0
  8 27  1  0  0  0  0
  9 28  1  0  0  0  0
 11 29  1  0  0  0  0
 12 30  1  0  0  0  0
 13 31  1  0  0  0  0
 14 32  1  0  0  0  0
 18 33  1  0  0  0  0
M  END
