 xtb: 6.7.1 (edcfbbe)
          04112514373D

 14 13  0     0  0            999 V2000
    0.3464   -0.2849    0.6181 C   0  0  0  0  0  0  0  0  0  0  0  0
   -0.3461    0.2876   -0.6178 C   0  0  0  0  0  0  0  0  0  0  0  0
   -1.7304   -0.2959   -0.8273 C   0  0  0  0  0  0  0  0  0  0  0  0
   -2.8463    0.1845    0.5035 Cl  0  0  0  0  0  0  0  0  0  0  0  0
    1.7310    0.2981    0.8272 C   0  0  0  0  0  0  0  0  0  0  0  0
    2.8465   -0.1834   -0.5034 Cl  0  0  0  0  0  0  0  0  0  0  0  0
    0.4164   -1.3699    0.5295 H   0  0  0  0  0  0  0  0  0  0  0  0
   -0.2471   -0.0529    1.5045 H   0  0  0  0  0  0  0  0  0  0  0  0
    0.2477    0.0561   -1.5041 H   0  0  0  0  0  0  0  0  0  0  0  0
   -0.4166    1.3727   -0.5290 H   0  0  0  0  0  0  0  0  0  0  0  0
   -2.1842    0.0742   -1.7442 H   0  0  0  0  0  0  0  0  0  0  0  0
   -1.7128   -1.3841   -0.8266 H   0  0  0  0  0  0  0  0  0  0  0  0
    1.7139    1.3863    0.8260 H   0  0  0  0  0  0  0  0  0  0  0  0
    2.1847   -0.0717    1.7442 H   0  0  0  0  0  0  0  0  0  0  0  0
  1  2  1  0  0  0  0
  2  3  1  0  0  0  0
  3  4  1  0  0  0  0
  1  5  1  0  0  0  0
  5  6  1  0  0  0  0
  1  7  1  0  0  0  0
  1  8  1  0  0  0  0
  2  9  1  0  0  0  0
  2 10  1  0  0  0  0
  3 11  1  0  0  0  0
  3 12  1  0  0  0  0
  5 13  1  0  0  0  0
  5 14  1  0  0  0  0
M  END
