 xtb: 6.7.1 (edcfbbe)
          04112514233D

 23 22  0     0  0            999 V2000
    2.5842    1.6603    0.1141 C   0  0  0  0  0  0  0  0  0  0  0  0
    1.8431    0.3857   -0.2858 C   0  0  0  0  0  0  0  0  0  0  0  0
    2.8400   -0.6729   -0.7521 C   0  0  0  0  0  0  0  0  0  0  0  0
    1.0017   -0.1156    0.8949 C   0  0  0  0  0  0  0  0  0  0  0  0
   -0.0222   -1.1785    0.5057 C   0  0  0  0  0  0  0  0  0  0  0  0
   -0.9601   -0.6774   -0.4571 O   0  0  0  0  0  0  0  0  0  0  0  0
   -2.0241   -0.0145   -0.0164 C   0  0  0  0  0  0  0  0  0  0  0  0
   -2.2532    0.1808    1.1596 O   0  0  0  0  0  0  0  0  0  0  0  0
   -2.9003    0.4311   -1.1487 C   0  0  0  0  0  0  0  0  0  0  0  0
    3.1751    2.0338   -0.7184 H   0  0  0  0  0  0  0  0  0  0  0  0
    3.2525    1.4609    0.9487 H   0  0  0  0  0  0  0  0  0  0  0  0
    1.8838    2.4370    0.4132 H   0  0  0  0  0  0  0  0  0  0  0  0
    1.1656    0.6196   -1.1144 H   0  0  0  0  0  0  0  0  0  0  0  0
    2.3309   -1.5656   -1.1038 H   0  0  0  0  0  0  0  0  0  0  0  0
    3.5050   -0.9495    0.0629 H   0  0  0  0  0  0  0  0  0  0  0  0
    3.4422   -0.2842   -1.5696 H   0  0  0  0  0  0  0  0  0  0  0  0
    0.4604    0.7243    1.3377 H   0  0  0  0  0  0  0  0  0  0  0  0
    1.6533   -0.5365    1.6614 H   0  0  0  0  0  0  0  0  0  0  0  0
    0.4466   -2.0331    0.0187 H   0  0  0  0  0  0  0  0  0  0  0  0
   -0.5732   -1.5063    1.3928 H   0  0  0  0  0  0  0  0  0  0  0  0
   -3.6605    1.1098   -0.7767 H   0  0  0  0  0  0  0  0  0  0  0  0
   -3.3728   -0.4437   -1.5888 H   0  0  0  0  0  0  0  0  0  0  0  0
   -2.2949    0.9092   -1.9128 H   0  0  0  0  0  0  0  0  0  0  0  0
  1  2  1  0  0  0  0
  2  3  1  0  0  0  0
  2  4  1  0  0  0  0
  4  5  1  0  0  0  0
  5  6  1  0  0  0  0
  6  7  1  0  0  0  0
  7  8  2  0  0  0  0
  7  9  1  0  0  0  0
  1 10  1  0  0  0  0
  1 11  1  0  0  0  0
  1 12  1  0  0  0  0
  2 13  1  0  0  0  0
  3 14  1  0  0  0  0
  3 15  1  0  0  0  0
  3 16  1  0  0  0  0
  4 17  1  0  0  0  0
  4 18  1  0  0  0  0
  5 19  1  0  0  0  0
  5 20  1  0  0  0  0
  9 21  1  0  0  0  0
  9 22  1  0  0  0  0
  9 23  1  0  0  0  0
M  END
