 xtb: 6.7.1 (edcfbbe)
          04112516263D

 20 19  0     0  0            999 V2000
   -3.3863   -0.5213   -0.3806 C   0  0  0  0  0  0  0  0  0  0  0  0
   -2.6122   -0.0277    0.8370 C   0  0  0  0  0  0  0  0  0  0  0  0
   -1.1077   -0.2879    0.7427 C   0  0  0  0  0  0  0  0  0  0  0  0
   -0.4540    0.5017   -0.3878 C   0  0  0  0  0  0  0  0  0  0  0  0
    1.0434    0.3695   -0.4630 C   0  0  0  0  0  0  0  0  0  0  0  0
    1.7347    0.9852   -1.2517 O   0  0  0  0  0  0  0  0  0  0  0  0
    1.5440   -0.4888    0.4149 O   0  0  0  0  0  0  0  0  0  0  0  0
    2.9600   -0.6864    0.4125 C   0  0  0  0  0  0  0  0  0  0  0  0
   -4.4549   -0.4079   -0.2160 H   0  0  0  0  0  0  0  0  0  0  0  0
   -3.1223    0.0442   -1.2701 H   0  0  0  0  0  0  0  0  0  0  0  0
   -3.1776   -1.5728   -0.5636 H   0  0  0  0  0  0  0  0  0  0  0  0
   -2.7865    1.0421    0.9683 H   0  0  0  0  0  0  0  0  0  0  0  0
   -2.9917   -0.5358    1.7255 H   0  0  0  0  0  0  0  0  0  0  0  0
   -0.9304   -1.3535    0.5900 H   0  0  0  0  0  0  0  0  0  0  0  0
   -0.6391   -0.0085    1.6877 H   0  0  0  0  0  0  0  0  0  0  0  0
   -0.6772    1.5673   -0.2947 H   0  0  0  0  0  0  0  0  0  0  0  0
   -0.8402    0.1819   -1.3579 H   0  0  0  0  0  0  0  0  0  0  0  0
    3.4723    0.2765    0.4137 H   0  0  0  0  0  0  0  0  0  0  0  0
    3.2542   -1.2432   -0.4778 H   0  0  0  0  0  0  0  0  0  0  0  0
    3.1800   -1.2507    1.3133 H   0  0  0  0  0  0  0  0  0  0  0  0
  1  2  1  0  0  0  0
  2  3  1  0  0  0  0
  3  4  1  0  0  0  0
  4  5  1  0  0  0  0
  5  6  2  0  0  0  0
  5  7  1  0  0  0  0
  7  8  1  0  0  0  0
  1  9  1  0  0  0  0
  1 10  1  0  0  0  0
  1 11  1  0  0  0  0
  2 12  1  0  0  0  0
  2 13  1  0  0  0  0
  3 14  1  0  0  0  0
  3 15  1  0  0  0  0
  4 16  1  0  0  0  0
  4 17  1  0  0  0  0
  8 18  1  0  0  0  0
  8 19  1  0  0  0  0
  8 20  1  0  0  0  0
M  END
