 xtb: 6.7.1 (edcfbbe)
          04112517193D

 23 23  0     0  0            999 V2000
   -3.9525   -0.7417   -0.1542 C   0  0  0  0  0  0  0  0  0  0  0  0
   -3.0567    0.3504   -0.0231 O   0  0  0  0  0  0  0  0  0  0  0  0
   -1.7320    0.0922    0.0146 C   0  0  0  0  0  0  0  0  0  0  0  0
   -1.1482   -1.1550   -0.0641 C   0  0  0  0  0  0  0  0  0  0  0  0
    0.2425   -1.3232    0.0018 C   0  0  0  0  0  0  0  0  0  0  0  0
    1.0627   -0.1984    0.1316 C   0  0  0  0  0  0  0  0  0  0  0  0
    0.5004    1.0727    0.1766 C   0  0  0  0  0  0  0  0  0  0  0  0
   -0.8939    1.2233    0.1414 C   0  0  0  0  0  0  0  0  0  0  0  0
   -1.4462    2.4371    0.2334 O   0  0  0  0  0  0  0  0  0  0  0  0
    1.2248    2.2370    0.3146 O   0  0  0  0  0  0  0  0  0  0  0  0
    2.0192    2.6171   -0.8109 C   0  0  0  0  0  0  0  0  0  0  0  0
    2.7774   -0.3690    0.2892 Cl  0  0  0  0  0  0  0  0  0  0  0  0
    0.7766   -2.6740   -0.0646 C   0  0  0  0  0  0  0  0  0  0  0  0
    0.1046   -3.6826   -0.1636 O   0  0  0  0  0  0  0  0  0  0  0  0
   -3.8599   -1.4281    0.6901 H   0  0  0  0  0  0  0  0  0  0  0  0
   -3.7814   -1.2788   -1.0895 H   0  0  0  0  0  0  0  0  0  0  0  0
   -4.9432   -0.2944   -0.1603 H   0  0  0  0  0  0  0  0  0  0  0  0
   -1.7343   -2.0543   -0.1651 H   0  0  0  0  0  0  0  0  0  0  0  0
   -0.7442    3.1017    0.3789 H   0  0  0  0  0  0  0  0  0  0  0  0
    2.8055    1.8899   -1.0130 H   0  0  0  0  0  0  0  0  0  0  0  0
    2.4630    3.5698   -0.5350 H   0  0  0  0  0  0  0  0  0  0  0  0
    1.3941    2.7333   -1.6992 H   0  0  0  0  0  0  0  0  0  0  0  0
    1.8752   -2.7485   -0.0214 H   0  0  0  0  0  0  0  0  0  0  0  0
  1  2  1  0  0  0  0
  2  3  1  0  0  0  0
  3  4  4  0  0  0  0
  4  5  4  0  0  0  0
  5  6  4  0  0  0  0
  6  7  4  0  0  0  0
  3  8  4  0  0  0  0
  7  8  4  0  0  0  0
  8  9  1  0  0  0  0
  7 10  1  0  0  0  0
 10 11  1  0  0  0  0
  6 12  1  0  0  0  0
  5 13  1  0  0  0  0
 13 14  2  0  0  0  0
  1 15  1  0  0  0  0
  1 16  1  0  0  0  0
  1 17  1  0  0  0  0
  4 18  1  0  0  0  0
  9 19  1  0  0  0  0
 11 20  1  0  0  0  0
 11 21  1  0  0  0  0
 11 22  1  0  0  0  0
 13 23  1  0  0  0  0
M  END
