 xtb: 6.7.1 (edcfbbe)
          04112516353D

 19 18  0     0  0            999 V2000
    2.9743   -0.0053   -0.6421 C   0  0  0  0  0  0  0  0  0  0  0  0
    1.6295   -0.3905   -0.0370 C   0  0  0  0  0  0  0  0  0  0  0  0
    0.8634    0.8364    0.4518 C   0  0  0  0  0  0  0  0  0  0  0  0
   -0.4848    0.4694    1.0916 C   0  0  0  0  0  0  0  0  0  0  0  0
   -1.4000   -0.1992    0.0952 C   0  0  0  0  0  0  0  0  0  0  0  0
   -1.5545   -1.4055    0.0680 O   0  0  0  0  0  0  0  0  0  0  0  0
   -2.1093    0.7228   -0.8506 C   0  0  0  0  0  0  0  0  0  0  0  0
    3.5061   -0.8903   -0.9816 H   0  0  0  0  0  0  0  0  0  0  0  0
    2.8342    0.6582   -1.4923 H   0  0  0  0  0  0  0  0  0  0  0  0
    3.5903    0.5052    0.0946 H   0  0  0  0  0  0  0  0  0  0  0  0
    1.7878   -1.0740    0.8000 H   0  0  0  0  0  0  0  0  0  0  0  0
    1.0322   -0.9236   -0.7809 H   0  0  0  0  0  0  0  0  0  0  0  0
    0.7030    1.5188   -0.3845 H   0  0  0  0  0  0  0  0  0  0  0  0
    1.4647    1.3591    1.1978 H   0  0  0  0  0  0  0  0  0  0  0  0
   -0.3096   -0.2184    1.9205 H   0  0  0  0  0  0  0  0  0  0  0  0
   -0.9601    1.3767    1.4635 H   0  0  0  0  0  0  0  0  0  0  0  0
   -1.4280    1.4758   -1.2345 H   0  0  0  0  0  0  0  0  0  0  0  0
   -2.5544    0.1606   -1.6668 H   0  0  0  0  0  0  0  0  0  0  0  0
   -2.8988    1.2326   -0.3015 H   0  0  0  0  0  0  0  0  0  0  0  0
  1  2  1  0  0  0  0
  2  3  1  0  0  0  0
  3  4  1  0  0  0  0
  4  5  1  0  0  0  0
  5  6  2  0  0  0  0
  5  7  1  0  0  0  0
  1  8  1  0  0  0  0
  1  9  1  0  0  0  0
  1 10  1  0  0  0  0
  2 11  1  0  0  0  0
  2 12  1  0  0  0  0
  3 13  1  0  0  0  0
  3 14  1  0  0  0  0
  4 15  1  0  0  0  0
  4 16  1  0  0  0  0
  7 17  1  0  0  0  0
  7 18  1  0  0  0  0
  7 19  1  0  0  0  0
M  END
