 xtb: 6.7.1 (edcfbbe)
          04112516263D

 20 19  0     0  0            999 V2000
   -1.8309   -1.2622   -0.3982 C   0  0  0  0  0  0  0  0  0  0  0  0
   -2.4376   -0.0612    0.3172 C   0  0  0  0  0  0  0  0  0  0  0  0
   -1.5864    1.2029    0.2006 C   0  0  0  0  0  0  0  0  0  0  0  0
   -0.2050    1.0586    0.8470 C   0  0  0  0  0  0  0  0  0  0  0  0
    0.7796    0.3714   -0.0615 C   0  0  0  0  0  0  0  0  0  0  0  0
    0.9072    0.5867   -1.2479 O   0  0  0  0  0  0  0  0  0  0  0  0
    1.5403   -0.4972    0.6025 O   0  0  0  0  0  0  0  0  0  0  0  0
    2.5498   -1.1888   -0.1367 C   0  0  0  0  0  0  0  0  0  0  0  0
   -2.5248   -2.0993   -0.3887 H   0  0  0  0  0  0  0  0  0  0  0  0
   -1.6019   -1.0141   -1.4330 H   0  0  0  0  0  0  0  0  0  0  0  0
   -0.9116   -1.5811    0.0878 H   0  0  0  0  0  0  0  0  0  0  0  0
   -3.4193    0.1480   -0.1120 H   0  0  0  0  0  0  0  0  0  0  0  0
   -2.5808   -0.3038    1.3722 H   0  0  0  0  0  0  0  0  0  0  0  0
   -2.1164    2.0252    0.6822 H   0  0  0  0  0  0  0  0  0  0  0  0
   -1.4476    1.4576   -0.8525 H   0  0  0  0  0  0  0  0  0  0  0  0
   -0.2567    0.5141    1.7890 H   0  0  0  0  0  0  0  0  0  0  0  0
    0.2051    2.0522    1.0411 H   0  0  0  0  0  0  0  0  0  0  0  0
    3.0653   -1.8143    0.5851 H   0  0  0  0  0  0  0  0  0  0  0  0
    3.2326   -0.4729   -0.5954 H   0  0  0  0  0  0  0  0  0  0  0  0
    2.0898   -1.7920   -0.9206 H   0  0  0  0  0  0  0  0  0  0  0  0
  1  2  1  0  0  0  0
  2  3  1  0  0  0  0
  3  4  1  0  0  0  0
  4  5  1  0  0  0  0
  5  6  2  0  0  0  0
  5  7  1  0  0  0  0
  7  8  1  0  0  0  0
  1  9  1  0  0  0  0
  1 10  1  0  0  0  0
  1 11  1  0  0  0  0
  2 12  1  0  0  0  0
  2 13  1  0  0  0  0
  3 14  1  0  0  0  0
  3 15  1  0  0  0  0
  4 16  1  0  0  0  0
  4 17  1  0  0  0  0
  8 18  1  0  0  0  0
  8 19  1  0  0  0  0
  8 20  1  0  0  0  0
M  END
