 xtb: 6.7.1 (edcfbbe)
          04112516153D

 26 25  0     0  0            999 V2000
    3.1547   -1.4431   -0.7605 C   0  0  0  0  0  0  0  0  0  0  0  0
    1.9371   -0.7212   -0.1915 C   0  0  0  0  0  0  0  0  0  0  0  0
    2.0226   -0.6371    1.3261 C   0  0  0  0  0  0  0  0  0  0  0  0
    0.6814   -1.3826   -0.6643 C   0  0  0  0  0  0  0  0  0  0  0  0
   -0.5337   -1.1225   -0.4337 N   0  0  0  0  0  0  0  0  0  0  0  0
   -0.7904   -0.0251    0.4214 O   0  0  0  0  0  0  0  0  0  0  0  0
   -2.1124    0.2822    0.6052 C   0  0  0  0  0  0  0  0  0  0  0  0
   -2.3490    1.2414    1.3191 O   0  0  0  0  0  0  0  0  0  0  0  0
   -2.9900   -0.4965   -0.0096 N   0  0  0  0  0  0  0  0  0  0  0  0
   -4.4185   -0.2993    0.0771 C   0  0  0  0  0  0  0  0  0  0  0  0
    1.9373    0.9780   -1.0017 S   0  0  0  0  0  0  0  0  0  0  0  0
    1.4746    2.1680    0.2856 C   0  0  0  0  0  0  0  0  0  0  0  0
    3.1795   -2.4704   -0.4048 H   0  0  0  0  0  0  0  0  0  0  0  0
    3.1219   -1.4393   -1.8471 H   0  0  0  0  0  0  0  0  0  0  0  0
    4.0633   -0.9376   -0.4457 H   0  0  0  0  0  0  0  0  0  0  0  0
    1.1614   -0.1308    1.7537 H   0  0  0  0  0  0  0  0  0  0  0  0
    2.9290   -0.1134    1.6191 H   0  0  0  0  0  0  0  0  0  0  0  0
    2.0618   -1.6474    1.7297 H   0  0  0  0  0  0  0  0  0  0  0  0
    0.7922   -2.2140   -1.3488 H   0  0  0  0  0  0  0  0  0  0  0  0
   -2.6259   -1.2518   -0.5773 H   0  0  0  0  0  0  0  0  0  0  0  0
   -4.6029    0.5561    0.7239 H   0  0  0  0  0  0  0  0  0  0  0  0
   -4.8908   -1.1847    0.4996 H   0  0  0  0  0  0  0  0  0  0  0  0
   -4.8288   -0.1029   -0.9123 H   0  0  0  0  0  0  0  0  0  0  0  0
    1.4698    3.1286   -0.2205 H   0  0  0  0  0  0  0  0  0  0  0  0
    2.2170    2.1675    1.0761 H   0  0  0  0  0  0  0  0  0  0  0  0
    0.4838    1.9496    0.6718 H   0  0  0  0  0  0  0  0  0  0  0  0
  1  2  1  0  0  0  0
  2  3  1  0  0  0  0
  2  4  1  0  0  0  0
  4  5  2  0  0  0  0
  5  6  1  0  0  0  0
  6  7  1  0  0  0  0
  7  8  2  0  0  0  0
  7  9  4  0  0  0  0
  9 10  1  0  0  0  0
  2 11  1  0  0  0  0
 11 12  1  0  0  0  0
  1 13  1  0  0  0  0
  1 14  1  0  0  0  0
  1 15  1  0  0  0  0
  3 16  1  0  0  0  0
  3 17  1  0  0  0  0
  3 18  1  0  0  0  0
  4 19  1  0  0  0  0
  9 20  1  0  0  0  0
 10 21  1  0  0  0  0
 10 22  1  0  0  0  0
 10 23  1  0  0  0  0
 12 24  1  0  0  0  0
 12 25  1  0  0  0  0
 12 26  1  0  0  0  0
M  END
