 xtb: 6.7.1 (edcfbbe)
          04112517153D

 20 19  0     0  0            999 V2000
   -3.3624   -0.5300    0.8145 C   0  0  0  0  0  0  0  0  0  0  0  0
   -2.8088    0.0271   -0.4925 C   0  0  0  0  0  0  0  0  0  0  0  0
   -1.4108    0.6261   -0.3444 C   0  0  0  0  0  0  0  0  0  0  0  0
   -0.3523   -0.4187   -0.0011 C   0  0  0  0  0  0  0  0  0  0  0  0
    1.0396    0.1524   -0.0364 C   0  0  0  0  0  0  0  0  0  0  0  0
    1.3348    1.2829   -0.3594 O   0  0  0  0  0  0  0  0  0  0  0  0
    1.9430   -0.7541    0.3336 O   0  0  0  0  0  0  0  0  0  0  0  0
    3.3157   -0.3530    0.3380 C   0  0  0  0  0  0  0  0  0  0  0  0
   -2.7820   -1.3832    1.1543 H   0  0  0  0  0  0  0  0  0  0  0  0
   -3.3443    0.2328    1.5893 H   0  0  0  0  0  0  0  0  0  0  0  0
   -4.3910   -0.8543    0.6774 H   0  0  0  0  0  0  0  0  0  0  0  0
   -2.7851   -0.7638   -1.2447 H   0  0  0  0  0  0  0  0  0  0  0  0
   -3.4787    0.8086   -0.8558 H   0  0  0  0  0  0  0  0  0  0  0  0
   -1.4193    1.3953    0.4302 H   0  0  0  0  0  0  0  0  0  0  0  0
   -1.1240    1.1138   -1.2784 H   0  0  0  0  0  0  0  0  0  0  0  0
   -0.3850   -1.2464   -0.7131 H   0  0  0  0  0  0  0  0  0  0  0  0
   -0.5114   -0.8373    0.9931 H   0  0  0  0  0  0  0  0  0  0  0  0
    3.6100   -0.0185   -0.6575 H   0  0  0  0  0  0  0  0  0  0  0  0
    3.8761   -1.2330    0.6367 H   0  0  0  0  0  0  0  0  0  0  0  0
    3.4628    0.4646    1.0446 H   0  0  0  0  0  0  0  0  0  0  0  0
  1  2  1  0  0  0  0
  2  3  1  0  0  0  0
  3  4  1  0  0  0  0
  4  5  1  0  0  0  0
  5  6  2  0  0  0  0
  5  7  1  0  0  0  0
  7  8  1  0  0  0  0
  1  9  1  0  0  0  0
  1 10  1  0  0  0  0
  1 11  1  0  0  0  0
  2 12  1  0  0  0  0
  2 13  1  0  0  0  0
  3 14  1  0  0  0  0
  3 15  1  0  0  0  0
  4 16  1  0  0  0  0
  4 17  1  0  0  0  0
  8 18  1  0  0  0  0
  8 19  1  0  0  0  0
  8 20  1  0  0  0  0
M  END
