 xtb: 6.7.1 (edcfbbe)
          04112516133D

 13 12  0     0  0            999 V2000
    2.8959    0.0132   -0.2865 C   0  0  0  0  0  0  0  0  0  0  0  0
    1.4853   -0.1101    0.1747 C   0  0  0  0  0  0  0  0  0  0  0  0
    1.0206   -1.0809    0.7300 O   0  0  0  0  0  0  0  0  0  0  0  0
    0.6101    1.1101   -0.1029 C   0  0  0  0  0  0  0  0  0  0  0  0
   -0.6913    0.9276    0.4328 O   0  0  0  0  0  0  0  0  0  0  0  0
   -1.4516   -0.0377   -0.1530 N   0  0  0  0  0  0  0  0  0  0  0  0
   -1.0516   -0.5158   -1.1689 O   0  0  0  0  0  0  0  0  0  0  0  0
   -2.4669   -0.2683    0.4231 O   0  0  0  0  0  0  0  0  0  0  0  0
    3.5538   -0.0840    0.5749 H   0  0  0  0  0  0  0  0  0  0  0  0
    3.1230   -0.8206   -0.9476 H   0  0  0  0  0  0  0  0  0  0  0  0
    3.0772    0.9544   -0.7912 H   0  0  0  0  0  0  0  0  0  0  0  0
    0.5667    1.2898   -1.1825 H   0  0  0  0  0  0  0  0  0  0  0  0
    0.9980    1.9892    0.4124 H   0  0  0  0  0  0  0  0  0  0  0  0
  1  2  1  0  0  0  0
  2  3  2  0  0  0  0
  2  4  1  0  0  0  0
  4  5  1  0  0  0  0
  5  6  1  0  0  0  0
  6  7  4  0  0  0  0
  6  8  4  0  0  0  0
  1  9  1  0  0  0  0
  1 10  1  0  0  0  0
  1 11  1  0  0  0  0
  4 12  1  0  0  0  0
  4 13  1  0  0  0  0
M  END
