 xtb: 6.7.1 (edcfbbe)
          04112516013D

 20 19  0     0  0            999 V2000
   -3.6106   -0.7427   -0.0090 C   0  0  0  0  0  0  0  0  0  0  0  0
   -2.1798   -0.3904   -0.3968 C   0  0  0  0  0  0  0  0  0  0  0  0
   -1.6112    0.7112    0.4963 C   0  0  0  0  0  0  0  0  0  0  0  0
   -0.1798    1.0694    0.1256 C   0  0  0  0  0  0  0  0  0  0  0  0
    0.6647   -0.0532    0.4203 O   0  0  0  0  0  0  0  0  0  0  0  0
    1.8856   -0.0694   -0.0972 C   0  0  0  0  0  0  0  0  0  0  0  0
    2.3223    0.8223   -0.7977 O   0  0  0  0  0  0  0  0  0  0  0  0
    2.6327   -1.3139    0.2772 C   0  0  0  0  0  0  0  0  0  0  0  0
   -4.2549    0.1284   -0.1005 H   0  0  0  0  0  0  0  0  0  0  0  0
   -3.9974   -1.5263   -0.6552 H   0  0  0  0  0  0  0  0  0  0  0  0
   -3.6511   -1.0933    1.0193 H   0  0  0  0  0  0  0  0  0  0  0  0
   -1.5485   -1.2768   -0.3127 H   0  0  0  0  0  0  0  0  0  0  0  0
   -2.1546   -0.0590   -1.4373 H   0  0  0  0  0  0  0  0  0  0  0  0
   -2.2195    1.6115    0.4069 H   0  0  0  0  0  0  0  0  0  0  0  0
   -1.6294    0.3834    1.5364 H   0  0  0  0  0  0  0  0  0  0  0  0
   -0.0836    1.3088   -0.9389 H   0  0  0  0  0  0  0  0  0  0  0  0
    0.1788    1.9271    0.7039 H   0  0  0  0  0  0  0  0  0  0  0  0
    3.6565   -1.0579    0.5330 H   0  0  0  0  0  0  0  0  0  0  0  0
    2.6563   -1.9749   -0.5864 H   0  0  0  0  0  0  0  0  0  0  0  0
    2.1346   -1.8103    1.1026 H   0  0  0  0  0  0  0  0  0  0  0  0
  1  2  1  0  0  0  0
  2  3  1  0  0  0  0
  3  4  1  0  0  0  0
  4  5  1  0  0  0  0
  5  6  1  0  0  0  0
  6  7  2  0  0  0  0
  6  8  1  0  0  0  0
  1  9  1  0  0  0  0
  1 10  1  0  0  0  0
  1 11  1  0  0  0  0
  2 12  1  0  0  0  0
  2 13  1  0  0  0  0
  3 14  1  0  0  0  0
  3 15  1  0  0  0  0
  4 16  1  0  0  0  0
  4 17  1  0  0  0  0
  8 18  1  0  0  0  0
  8 19  1  0  0  0  0
  8 20  1  0  0  0  0
M  END
