 xtb: 6.7.1 (edcfbbe)
          04112516333D

 17 16  0     0  0            999 V2000
   -3.9636   -0.9426   -0.1829 C   0  0  0  0  0  0  0  0  0  0  0  0
   -3.0727    0.1619    0.3729 C   0  0  0  0  0  0  0  0  0  0  0  0
   -1.6917    0.1514   -0.2783 C   0  0  0  0  0  0  0  0  0  0  0  0
   -0.7921    1.2532    0.2761 C   0  0  0  0  0  0  0  0  0  0  0  0
    0.5729    1.2849   -0.3811 C   0  0  0  0  0  0  0  0  0  0  0  0
    1.6277   -0.3332    0.0324 Br  0  0  0  0  0  0  0  0  0  0  0  0
   -4.9404   -0.9208    0.2934 H   0  0  0  0  0  0  0  0  0  0  0  0
   -3.5159   -1.9179   -0.0055 H   0  0  0  0  0  0  0  0  0  0  0  0
   -4.1005   -0.8191   -1.2548 H   0  0  0  0  0  0  0  0  0  0  0  0
   -3.5459    1.1312    0.2014 H   0  0  0  0  0  0  0  0  0  0  0  0
   -2.9636    0.0312    1.4516 H   0  0  0  0  0  0  0  0  0  0  0  0
   -1.2230   -0.8207   -0.1059 H   0  0  0  0  0  0  0  0  0  0  0  0
   -1.8010    0.2808   -1.3580 H   0  0  0  0  0  0  0  0  0  0  0  0
   -1.2578    2.2264    0.1004 H   0  0  0  0  0  0  0  0  0  0  0  0
   -0.6788    1.1261    1.3550 H   0  0  0  0  0  0  0  0  0  0  0  0
    1.1778    2.1162   -0.0242 H   0  0  0  0  0  0  0  0  0  0  0  0
    0.5009    1.3106   -1.4670 H   0  0  0  0  0  0  0  0  0  0  0  0
  1  2  1  0  0  0  0
  2  3  1  0  0  0  0
  3  4  1  0  0  0  0
  4  5  1  0  0  0  0
  5  6  1  0  0  0  0
  1  7  1  0  0  0  0
  1  8  1  0  0  0  0
  1  9  1  0  0  0  0
  2 10  1  0  0  0  0
  2 11  1  0  0  0  0
  3 12  1  0  0  0  0
  3 13  1  0  0  0  0
  4 14  1  0  0  0  0
  4 15  1  0  0  0  0
  5 16  1  0  0  0  0
  5 17  1  0  0  0  0
M  END
