 xtb: 6.7.1 (edcfbbe)
          04112516293D

 20 19  0     0  0            999 V2000
   -3.1455   -0.4323   -0.8028 C   0  0  0  0  0  0  0  0  0  0  0  0
   -2.7032    0.5538    0.2727 C   0  0  0  0  0  0  0  0  0  0  0  0
   -1.1934    0.7896    0.2861 C   0  0  0  0  0  0  0  0  0  0  0  0
   -0.4075   -0.4608    0.6735 C   0  0  0  0  0  0  0  0  0  0  0  0
    0.9778   -0.1526    0.8826 O   0  0  0  0  0  0  0  0  0  0  0  0
    1.7834   -0.1155   -0.1748 C   0  0  0  0  0  0  0  0  0  0  0  0
    1.4150   -0.3552   -1.3060 O   0  0  0  0  0  0  0  0  0  0  0  0
    3.1828    0.2535    0.2155 C   0  0  0  0  0  0  0  0  0  0  0  0
   -4.2307   -0.4727   -0.8508 H   0  0  0  0  0  0  0  0  0  0  0  0
   -2.7692   -0.1264   -1.7762 H   0  0  0  0  0  0  0  0  0  0  0  0
   -2.7779   -1.4328   -0.5921 H   0  0  0  0  0  0  0  0  0  0  0  0
   -3.1928    1.5130    0.0963 H   0  0  0  0  0  0  0  0  0  0  0  0
   -3.0204    0.1923    1.2524 H   0  0  0  0  0  0  0  0  0  0  0  0
   -0.8614    1.1199   -0.7011 H   0  0  0  0  0  0  0  0  0  0  0  0
   -0.9552    1.5759    1.0057 H   0  0  0  0  0  0  0  0  0  0  0  0
   -0.7517   -0.8597    1.6286 H   0  0  0  0  0  0  0  0  0  0  0  0
   -0.4796   -1.2232   -0.1071 H   0  0  0  0  0  0  0  0  0  0  0  0
    3.4827   -0.3233    1.0849 H   0  0  0  0  0  0  0  0  0  0  0  0
    3.2028    1.3071    0.4835 H   0  0  0  0  0  0  0  0  0  0  0  0
    3.8533    0.0764   -0.6188 H   0  0  0  0  0  0  0  0  0  0  0  0
  1  2  1  0  0  0  0
  2  3  1  0  0  0  0
  3  4  1  0  0  0  0
  4  5  1  0  0  0  0
  5  6  1  0  0  0  0
  6  7  2  0  0  0  0
  6  8  1  0  0  0  0
  1  9  1  0  0  0  0
  1 10  1  0  0  0  0
  1 11  1  0  0  0  0
  2 12  1  0  0  0  0
  2 13  1  0  0  0  0
  3 14  1  0  0  0  0
  3 15  1  0  0  0  0
  4 16  1  0  0  0  0
  4 17  1  0  0  0  0
  8 18  1  0  0  0  0
  8 19  1  0  0  0  0
  8 20  1  0  0  0  0
M  END
