 xtb: 6.7.1 (edcfbbe)
          04112514233D

 18 17  0     0  0            999 V2000
    2.6117   -0.3280    0.6645 C   0  0  0  0  0  0  0  0  0  0  0  0
    1.8805    0.4728   -0.4074 C   0  0  0  0  0  0  0  0  0  0  0  0
    0.4960   -0.0853   -0.7381 C   0  0  0  0  0  0  0  0  0  0  0  0
   -0.5033    0.0600    0.4147 C   0  0  0  0  0  0  0  0  0  0  0  0
   -1.8573   -0.4302    0.0139 C   0  0  0  0  0  0  0  0  0  0  0  0
   -2.9532    0.3053    0.0111 C   0  0  0  0  0  0  0  0  0  0  0  0
    2.6836   -1.3740    0.3744 H   0  0  0  0  0  0  0  0  0  0  0  0
    2.0944   -0.2685    1.6184 H   0  0  0  0  0  0  0  0  0  0  0  0
    3.6184    0.0596    0.8018 H   0  0  0  0  0  0  0  0  0  0  0  0
    1.7819    1.5107   -0.0818 H   0  0  0  0  0  0  0  0  0  0  0  0
    2.4805    0.4691   -1.3203 H   0  0  0  0  0  0  0  0  0  0  0  0
    0.1001    0.4451   -1.6077 H   0  0  0  0  0  0  0  0  0  0  0  0
    0.5867   -1.1404   -1.0065 H   0  0  0  0  0  0  0  0  0  0  0  0
   -0.1563   -0.5271    1.2682 H   0  0  0  0  0  0  0  0  0  0  0  0
   -0.5626    1.1068    0.7187 H   0  0  0  0  0  0  0  0  0  0  0  0
   -1.8974   -1.4656   -0.3005 H   0  0  0  0  0  0  0  0  0  0  0  0
   -3.9082   -0.0906   -0.2898 H   0  0  0  0  0  0  0  0  0  0  0  0
   -2.9411    1.3389    0.3168 H   0  0  0  0  0  0  0  0  0  0  0  0
  1  2  1  0  0  0  0
  2  3  1  0  0  0  0
  3  4  1  0  0  0  0
  4  5  1  0  0  0  0
  5  6  2  0  0  0  0
  1  7  1  0  0  0  0
  1  8  1  0  0  0  0
  1  9  1  0  0  0  0
  2 10  1  0  0  0  0
  2 11  1  0  0  0  0
  3 12  1  0  0  0  0
  3 13  1  0  0  0  0
  4 14  1  0  0  0  0
  4 15  1  0  0  0  0
  5 16  1  0  0  0  0
  6 17  1  0  0  0  0
  6 18  1  0  0  0  0
M  END
