 xtb: 6.7.1 (edcfbbe)
          04112516483D

 20 19  0     0  0            999 V2000
    3.0979   -1.4501   -0.4837 C   0  0  0  0  0  0  0  0  0  0  0  0
    2.3186   -0.1737   -0.5124 C   0  0  0  0  0  0  0  0  0  0  0  0
    2.5176    0.7556   -1.2651 O   0  0  0  0  0  0  0  0  0  0  0  0
    1.3654   -0.1602    0.4231 O   0  0  0  0  0  0  0  0  0  0  0  0
    0.5483    1.0050    0.5295 C   0  0  0  0  0  0  0  0  0  0  0  0
   -0.5525    1.0192   -0.5303 C   0  0  0  0  0  0  0  0  0  0  0  0
   -1.3822   -0.1385   -0.4436 O   0  0  0  0  0  0  0  0  0  0  0  0
   -2.3256   -0.1635    0.5017 C   0  0  0  0  0  0  0  0  0  0  0  0
   -2.5215    0.7590    1.2635 O   0  0  0  0  0  0  0  0  0  0  0  0
   -3.0785   -1.4556    0.4902 C   0  0  0  0  0  0  0  0  0  0  0  0
    3.3150   -1.7658   -1.4997 H   0  0  0  0  0  0  0  0  0  0  0  0
    2.5437   -2.2103    0.0557 H   0  0  0  0  0  0  0  0  0  0  0  0
    4.0435   -1.2643    0.0215 H   0  0  0  0  0  0  0  0  0  0  0  0
    0.1164    0.9661    1.5303 H   0  0  0  0  0  0  0  0  0  0  0  0
    1.1652    1.8996    0.4067 H   0  0  0  0  0  0  0  0  0  0  0  0
   -0.1208    0.9918   -1.5314 H   0  0  0  0  0  0  0  0  0  0  0  0
   -1.1603    1.9181   -0.3932 H   0  0  0  0  0  0  0  0  0  0  0  0
   -3.0356   -1.9009   -0.4979 H   0  0  0  0  0  0  0  0  0  0  0  0
   -4.1032   -1.2845    0.8048 H   0  0  0  0  0  0  0  0  0  0  0  0
   -2.6075   -2.1303    1.2025 H   0  0  0  0  0  0  0  0  0  0  0  0
  1  2  1  0  0  0  0
  2  3  2  0  0  0  0
  2  4  1  0  0  0  0
  4  5  1  0  0  0  0
  5  6  1  0  0  0  0
  6  7  1  0  0  0  0
  7  8  1  0  0  0  0
  8  9  2  0  0  0  0
  8 10  1  0  0  0  0
  1 11  1  0  0  0  0
  1 12  1  0  0  0  0
  1 13  1  0  0  0  0
  5 14  1  0  0  0  0
  5 15  1  0  0  0  0
  6 16  1  0  0  0  0
  6 17  1  0  0  0  0
 10 18  1  0  0  0  0
 10 19  1  0  0  0  0
 10 20  1  0  0  0  0
M  END
