 xtb: 6.7.1 (edcfbbe)
          04112516153D

 26 25  0     0  0            999 V2000
    0.7358   -0.3157   -1.5828 C   0  0  0  0  0  0  0  0  0  0  0  0
    1.5045   -0.3881   -0.2697 C   0  0  0  0  0  0  0  0  0  0  0  0
    2.9290   -0.8913   -0.4957 C   0  0  0  0  0  0  0  0  0  0  0  0
    0.8995   -1.2350    0.8082 C   0  0  0  0  0  0  0  0  0  0  0  0
   -0.2364   -1.7372    1.0211 N   0  0  0  0  0  0  0  0  0  0  0  0
   -1.2956   -1.5110    0.1034 O   0  0  0  0  0  0  0  0  0  0  0  0
   -1.9447   -0.3140    0.2069 C   0  0  0  0  0  0  0  0  0  0  0  0
   -1.5653    0.6017    0.9110 O   0  0  0  0  0  0  0  0  0  0  0  0
   -3.0173   -0.3215   -0.5862 N   0  0  0  0  0  0  0  0  0  0  0  0
   -3.9171    0.8051   -0.6986 C   0  0  0  0  0  0  0  0  0  0  0  0
    1.5174    1.2968    0.5532 S   0  0  0  0  0  0  0  0  0  0  0  0
    2.8008    2.1752   -0.4015 C   0  0  0  0  0  0  0  0  0  0  0  0
    1.3525    0.1550   -2.3447 H   0  0  0  0  0  0  0  0  0  0  0  0
    0.4709   -1.3170   -1.9181 H   0  0  0  0  0  0  0  0  0  0  0  0
   -0.1728    0.2721   -1.4717 H   0  0  0  0  0  0  0  0  0  0  0  0
    3.5166   -0.8079    0.4150 H   0  0  0  0  0  0  0  0  0  0  0  0
    3.4137   -0.3259   -1.2859 H   0  0  0  0  0  0  0  0  0  0  0  0
    2.8923   -1.9371   -0.7948 H   0  0  0  0  0  0  0  0  0  0  0  0
    1.5896   -1.4953    1.6037 H   0  0  0  0  0  0  0  0  0  0  0  0
   -3.2273   -1.1684   -1.0923 H   0  0  0  0  0  0  0  0  0  0  0  0
   -4.9126    0.5293   -0.3535 H   0  0  0  0  0  0  0  0  0  0  0  0
   -3.9676    1.1400   -1.7337 H   0  0  0  0  0  0  0  0  0  0  0  0
   -3.5273    1.6068   -0.0745 H   0  0  0  0  0  0  0  0  0  0  0  0
    3.7791    1.7607   -0.1887 H   0  0  0  0  0  0  0  0  0  0  0  0
    2.7472    3.1998   -0.0495 H   0  0  0  0  0  0  0  0  0  0  0  0
    2.5662    2.1361   -1.4592 H   0  0  0  0  0  0  0  0  0  0  0  0
  1  2  1  0  0  0  0
  2  3  1  0  0  0  0
  2  4  1  0  0  0  0
  4  5  2  0  0  0  0
  5  6  1  0  0  0  0
  6  7  1  0  0  0  0
  7  8  2  0  0  0  0
  7  9  4  0  0  0  0
  9 10  1  0  0  0  0
  2 11  1  0  0  0  0
 11 12  1  0  0  0  0
  1 13  1  0  0  0  0
  1 14  1  0  0  0  0
  1 15  1  0  0  0  0
  3 16  1  0  0  0  0
  3 17  1  0  0  0  0
  3 18  1  0  0  0  0
  4 19  1  0  0  0  0
  9 20  1  0  0  0  0
 10 21  1  0  0  0  0
 10 22  1  0  0  0  0
 10 23  1  0  0  0  0
 12 24  1  0  0  0  0
 12 25  1  0  0  0  0
 12 26  1  0  0  0  0
M  END
