 xtb: 6.7.1 (edcfbbe)
          04112516113D

 17 16  0     0  0            999 V2000
   -2.4585   -0.6269    0.3614 C   0  0  0  0  0  0  0  0  0  0  0  0
   -1.6718    0.1095   -0.7175 C   0  0  0  0  0  0  0  0  0  0  0  0
   -0.8011    1.2387   -0.1645 C   0  0  0  0  0  0  0  0  0  0  0  0
    0.2784    0.7548    0.8137 C   0  0  0  0  0  0  0  0  0  0  0  0
    1.2021   -0.2355    0.1596 C   0  0  0  0  0  0  0  0  0  0  0  0
    1.3222   -1.3969    0.4913 O   0  0  0  0  0  0  0  0  0  0  0  0
    1.8941    0.2924   -0.8376 O   0  0  0  0  0  0  0  0  0  0  0  0
   -1.7927   -1.1971    1.0045 H   0  0  0  0  0  0  0  0  0  0  0  0
   -3.0197    0.0767    0.9718 H   0  0  0  0  0  0  0  0  0  0  0  0
   -3.1590   -1.3222   -0.0945 H   0  0  0  0  0  0  0  0  0  0  0  0
   -2.3705    0.5402   -1.4376 H   0  0  0  0  0  0  0  0  0  0  0  0
   -1.0447   -0.6072   -1.2537 H   0  0  0  0  0  0  0  0  0  0  0  0
   -0.3129    1.7497   -0.9960 H   0  0  0  0  0  0  0  0  0  0  0  0
   -1.4343    1.9589    0.3554 H   0  0  0  0  0  0  0  0  0  0  0  0
   -0.1690    0.2867    1.6887 H   0  0  0  0  0  0  0  0  0  0  0  0
    0.8766    1.6109    1.1278 H   0  0  0  0  0  0  0  0  0  0  0  0
    2.4940   -0.3490   -1.2642 H   0  0  0  0  0  0  0  0  0  0  0  0
  1  2  1  0  0  0  0
  2  3  1  0  0  0  0
  3  4  1  0  0  0  0
  4  5  1  0  0  0  0
  5  6  2  0  0  0  0
  5  7  1  0  0  0  0
  1  8  1  0  0  0  0
  1  9  1  0  0  0  0
  1 10  1  0  0  0  0
  2 11  1  0  0  0  0
  2 12  1  0  0  0  0
  3 13  1  0  0  0  0
  3 14  1  0  0  0  0
  4 15  1  0  0  0  0
  4 16  1  0  0  0  0
  7 17  1  0  0  0  0
M  END
