 xtb: 6.7.1 (edcfbbe)
          04112516413D

 26 25  0     0  0            999 V2000
    1.4250    0.5515   -1.8228 C   0  0  0  0  0  0  0  0  0  0  0  0
    1.6047    0.1186   -0.3649 C   0  0  0  0  0  0  0  0  0  0  0  0
    1.6074   -1.4031   -0.2486 C   0  0  0  0  0  0  0  0  0  0  0  0
    0.5366    0.7567    0.4698 C   0  0  0  0  0  0  0  0  0  0  0  0
   -0.7090    0.5563    0.4796 N   0  0  0  0  0  0  0  0  0  0  0  0
   -1.2070   -0.4242   -0.4036 O   0  0  0  0  0  0  0  0  0  0  0  0
   -2.5674   -0.6078   -0.3652 C   0  0  0  0  0  0  0  0  0  0  0  0
   -3.0223   -1.4504   -1.1169 O   0  0  0  0  0  0  0  0  0  0  0  0
   -3.2403    0.1523    0.4866 N   0  0  0  0  0  0  0  0  0  0  0  0
   -4.6752    0.0831    0.6417 C   0  0  0  0  0  0  0  0  0  0  0  0
    3.2435    0.8092    0.1671 S   0  0  0  0  0  0  0  0  0  0  0  0
    3.4346    0.1032    1.8321 C   0  0  0  0  0  0  0  0  0  0  0  0
    2.2165    0.1207   -2.4303 H   0  0  0  0  0  0  0  0  0  0  0  0
    0.4632    0.2048   -2.1947 H   0  0  0  0  0  0  0  0  0  0  0  0
    1.4725    1.6352   -1.9053 H   0  0  0  0  0  0  0  0  0  0  0  0
    2.4774   -1.8041   -0.7631 H   0  0  0  0  0  0  0  0  0  0  0  0
    0.7094   -1.8087   -0.7099 H   0  0  0  0  0  0  0  0  0  0  0  0
    1.6304   -1.7191    0.7918 H   0  0  0  0  0  0  0  0  0  0  0  0
    0.8343    1.5396    1.1561 H   0  0  0  0  0  0  0  0  0  0  0  0
   -2.7132    0.8139    1.0429 H   0  0  0  0  0  0  0  0  0  0  0  0
   -4.9264   -0.1886    1.6658 H   0  0  0  0  0  0  0  0  0  0  0  0
   -5.0525   -0.6768   -0.0397 H   0  0  0  0  0  0  0  0  0  0  0  0
   -5.1232    1.0453    0.3985 H   0  0  0  0  0  0  0  0  0  0  0  0
    2.5113    0.2234    2.3894 H   0  0  0  0  0  0  0  0  0  0  0  0
    4.2310    0.6701    2.3019 H   0  0  0  0  0  0  0  0  0  0  0  0
    3.7168   -0.9422    1.7594 H   0  0  0  0  0  0  0  0  0  0  0  0
  1  2  1  0  0  0  0
  2  3  1  0  0  0  0
  2  4  1  0  0  0  0
  4  5  2  0  0  0  0
  5  6  1  0  0  0  0
  6  7  1  0  0  0  0
  7  8  2  0  0  0  0
  7  9  4  0  0  0  0
  9 10  1  0  0  0  0
  2 11  1  0  0  0  0
 11 12  1  0  0  0  0
  1 13  1  0  0  0  0
  1 14  1  0  0  0  0
  1 15  1  0  0  0  0
  3 16  1  0  0  0  0
  3 17  1  0  0  0  0
  3 18  1  0  0  0  0
  4 19  1  0  0  0  0
  9 20  1  0  0  0  0
 10 21  1  0  0  0  0
 10 22  1  0  0  0  0
 10 23  1  0  0  0  0
 12 24  1  0  0  0  0
 12 25  1  0  0  0  0
 12 26  1  0  0  0  0
M  END
