 xtb: 6.7.1 (edcfbbe)
          04112516133D

 33 34  0     0  0            999 V2000
   -4.4442    1.5210   -0.2169 C   0  0  0  0  0  0  0  0  0  0  0  0
   -3.2244    0.7688    0.2288 C   0  0  0  0  0  0  0  0  0  0  0  0
   -3.1177    0.3680    1.5547 C   0  0  0  0  0  0  0  0  0  0  0  0
   -2.0119   -0.3334    1.9994 C   0  0  0  0  0  0  0  0  0  0  0  0
   -1.0010   -0.6562    1.1177 C   0  0  0  0  0  0  0  0  0  0  0  0
   -1.0858   -0.2535   -0.2118 C   0  0  0  0  0  0  0  0  0  0  0  0
   -2.1953    0.4703   -0.6647 C   0  0  0  0  0  0  0  0  0  0  0  0
   -2.2350    0.9101   -2.0989 C   0  0  0  0  0  0  0  0  0  0  0  0
   -0.0993   -0.6240   -1.1312 N   0  0  0  0  0  0  0  0  0  0  0  0
    1.2215   -0.8674   -0.8807 C   0  0  0  0  0  0  0  0  0  0  0  0
    1.8871   -1.8270   -1.6584 C   0  0  0  0  0  0  0  0  0  0  0  0
    3.1996   -2.1605   -1.4161 C   0  0  0  0  0  0  0  0  0  0  0  0
    3.8990   -1.5525   -0.3792 C   0  0  0  0  0  0  0  0  0  0  0  0
    3.2826   -0.5711    0.3652 C   0  0  0  0  0  0  0  0  0  0  0  0
    1.9620   -0.1895    0.1116 C   0  0  0  0  0  0  0  0  0  0  0  0
    1.4480    1.0068    0.7932 C   0  0  0  0  0  0  0  0  0  0  0  0
    0.6485    1.7964    0.3218 O   0  0  0  0  0  0  0  0  0  0  0  0
    2.0049    1.2182    1.9882 O   0  0  0  0  0  0  0  0  0  0  0  0
   -5.1678    1.5773    0.5918 H   0  0  0  0  0  0  0  0  0  0  0  0
   -4.1818    2.5366   -0.5106 H   0  0  0  0  0  0  0  0  0  0  0  0
   -4.9114    1.0292   -1.0675 H   0  0  0  0  0  0  0  0  0  0  0  0
   -3.9102    0.6088    2.2479 H   0  0  0  0  0  0  0  0  0  0  0  0
   -1.9430   -0.6419    3.0321 H   0  0  0  0  0  0  0  0  0  0  0  0
   -0.1438   -1.2232    1.4523 H   0  0  0  0  0  0  0  0  0  0  0  0
   -2.5665    0.0952   -2.7435 H   0  0  0  0  0  0  0  0  0  0  0  0
   -2.9136    1.7449   -2.2339 H   0  0  0  0  0  0  0  0  0  0  0  0
   -1.2410    1.2227   -2.4126 H   0  0  0  0  0  0  0  0  0  0  0  0
   -0.4442   -0.9638   -2.0180 H   0  0  0  0  0  0  0  0  0  0  0  0
    1.3426   -2.3178   -2.4513 H   0  0  0  0  0  0  0  0  0  0  0  0
    3.6829   -2.9081   -2.0262 H   0  0  0  0  0  0  0  0  0  0  0  0
    4.9203   -1.8292   -0.1731 H   0  0  0  0  0  0  0  0  0  0  0  0
    3.8239   -0.0545    1.1425 H   0  0  0  0  0  0  0  0  0  0  0  0
    1.6985    2.0564    2.3816 H   0  0  0  0  0  0  0  0  0  0  0  0
  1  2  1  0  0  0  0
  2  3  4  0  0  0  0
  3  4  4  0  0  0  0
  4  5  4  0  0  0  0
  5  6  4  0  0  0  0
  2  7  4  0  0  0  0
  6  7  4  0  0  0  0
  7  8  1  0  0  0  0
  6  9  1  0  0  0  0
  9 10  1  0  0  0  0
 10 11  4  0  0  0  0
 11 12  4  0  0  0  0
 12 13  4  0  0  0  0
 13 14  4  0  0  0  0
 10 15  4  0  0  0  0
 14 15  4  0  0  0  0
 15 16  1  0  0  0  0
 16 17  2  0  0  0  0
 16 18  1  0  0  0  0
  1 19  1  0  0  0  0
  1 20  1  0  0  0  0
  1 21  1  0  0  0  0
  3 22  1  0  0  0  0
  4 23  1  0  0  0  0
  5 24  1  0  0  0  0
  8 25  1  0  0  0  0
  8 26  1  0  0  0  0
  8 27  1  0  0  0  0
  9 28  1  0  0  0  0
 11 29  1  0  0  0  0
 12 30  1  0  0  0  0
 13 31  1  0  0  0  0
 14 32  1  0  0  0  0
 18 33  1  0  0  0  0
M  END
