 xtb: 6.7.1 (edcfbbe)
          04112517403D

 33 34  0     0  0            999 V2000
   -4.2226   -0.7458    1.6829 C   0  0  0  0  0  0  0  0  0  0  0  0
   -3.4311   -0.3343    0.4790 C   0  0  0  0  0  0  0  0  0  0  0  0
   -4.0555   -0.2321   -0.7563 C   0  0  0  0  0  0  0  0  0  0  0  0
   -3.3519    0.1697   -1.8778 C   0  0  0  0  0  0  0  0  0  0  0  0
   -2.0022    0.4391   -1.7763 C   0  0  0  0  0  0  0  0  0  0  0  0
   -1.3532    0.3141   -0.5513 C   0  0  0  0  0  0  0  0  0  0  0  0
   -2.0686   -0.0394    0.5975 C   0  0  0  0  0  0  0  0  0  0  0  0
   -1.4114   -0.0731    1.9442 C   0  0  0  0  0  0  0  0  0  0  0  0
    0.0243    0.6058   -0.5039 N   0  0  0  0  0  0  0  0  0  0  0  0
    1.0076   -0.2393   -0.1199 C   0  0  0  0  0  0  0  0  0  0  0  0
    0.7257   -1.5823    0.1933 C   0  0  0  0  0  0  0  0  0  0  0  0
    1.7140   -2.4402    0.6037 C   0  0  0  0  0  0  0  0  0  0  0  0
    3.0343   -2.0033    0.7170 C   0  0  0  0  0  0  0  0  0  0  0  0
    3.3441   -0.7076    0.3877 C   0  0  0  0  0  0  0  0  0  0  0  0
    2.3573    0.1940   -0.0400 C   0  0  0  0  0  0  0  0  0  0  0  0
    2.7460    1.5454   -0.4078 C   0  0  0  0  0  0  0  0  0  0  0  0
    1.9937    2.4077   -0.8606 O   0  0  0  0  0  0  0  0  0  0  0  0
    4.0403    1.8216   -0.2275 O   0  0  0  0  0  0  0  0  0  0  0  0
   -4.2928    0.0772    2.3931 H   0  0  0  0  0  0  0  0  0  0  0  0
   -5.2290   -1.0368    1.3956 H   0  0  0  0  0  0  0  0  0  0  0  0
   -3.7460   -1.5826    2.1895 H   0  0  0  0  0  0  0  0  0  0  0  0
   -5.1081   -0.4588   -0.8388 H   0  0  0  0  0  0  0  0  0  0  0  0
   -3.8523    0.2627   -2.8296 H   0  0  0  0  0  0  0  0  0  0  0  0
   -1.4328    0.7406   -2.6427 H   0  0  0  0  0  0  0  0  0  0  0  0
   -1.2801   -1.0977    2.2904 H   0  0  0  0  0  0  0  0  0  0  0  0
   -0.4358    0.4032    1.9151 H   0  0  0  0  0  0  0  0  0  0  0  0
   -2.0295    0.4482    2.6720 H   0  0  0  0  0  0  0  0  0  0  0  0
    0.3284    1.4907   -0.8960 H   0  0  0  0  0  0  0  0  0  0  0  0
   -0.2885   -1.9310    0.0810 H   0  0  0  0  0  0  0  0  0  0  0  0
    1.4682   -3.4660    0.8329 H   0  0  0  0  0  0  0  0  0  0  0  0
    3.8053   -2.6816    1.0451 H   0  0  0  0  0  0  0  0  0  0  0  0
    4.3624   -0.3568    0.4464 H   0  0  0  0  0  0  0  0  0  0  0  0
    4.2430    2.7372   -0.4953 H   0  0  0  0  0  0  0  0  0  0  0  0
  1  2  1  0  0  0  0
  2  3  4  0  0  0  0
  3  4  4  0  0  0  0
  4  5  4  0  0  0  0
  5  6  4  0  0  0  0
  2  7  4  0  0  0  0
  6  7  4  0  0  0  0
  7  8  1  0  0  0  0
  6  9  1  0  0  0  0
  9 10  4  0  0  0  0
 10 11  4  0  0  0  0
 11 12  2  0  0  0  0
 12 13  4  0  0  0  0
 13 14  2  0  0  0  0
 10 15  4  0  0  0  0
 14 15  4  0  0  0  0
 15 16  1  0  0  0  0
 16 17  2  0  0  0  0
 16 18  1  0  0  0  0
  1 19  1  0  0  0  0
  1 20  1  0  0  0  0
  1 21  1  0  0  0  0
  3 22  1  0  0  0  0
  4 23  1  0  0  0  0
  5 24  1  0  0  0  0
  8 25  1  0  0  0  0
  8 26  1  0  0  0  0
  8 27  1  0  0  0  0
  9 28  1  0  0  0  0
 11 29  1  0  0  0  0
 12 30  1  0  0  0  0
 13 31  1  0  0  0  0
 14 32  1  0  0  0  0
 18 33  1  0  0  0  0
M  END
