 xtb: 6.7.1 (edcfbbe)
          04112517153D

 20 19  0     0  0            999 V2000
   -3.2965   -0.7954   -0.4219 C   0  0  0  0  0  0  0  0  0  0  0  0
   -1.9037   -0.6174    0.1703 C   0  0  0  0  0  0  0  0  0  0  0  0
   -1.4926    0.8531    0.2083 C   0  0  0  0  0  0  0  0  0  0  0  0
   -0.1122    1.0434    0.8440 C   0  0  0  0  0  0  0  0  0  0  0  0
    0.9618    0.4264   -0.0130 C   0  0  0  0  0  0  0  0  0  0  0  0
    1.1326    0.6533   -1.1924 O   0  0  0  0  0  0  0  0  0  0  0  0
    1.7234   -0.4139    0.6804 O   0  0  0  0  0  0  0  0  0  0  0  0
    2.7934   -1.0635   -0.0111 C   0  0  0  0  0  0  0  0  0  0  0  0
   -3.5704   -1.8470   -0.4436 H   0  0  0  0  0  0  0  0  0  0  0  0
   -4.0325   -0.2590    0.1720 H   0  0  0  0  0  0  0  0  0  0  0  0
   -3.3285   -0.4103   -1.4385 H   0  0  0  0  0  0  0  0  0  0  0  0
   -1.8834   -1.0253    1.1831 H   0  0  0  0  0  0  0  0  0  0  0  0
   -1.1796   -1.1769   -0.4279 H   0  0  0  0  0  0  0  0  0  0  0  0
   -2.2273    1.4210    0.7802 H   0  0  0  0  0  0  0  0  0  0  0  0
   -1.4673    1.2498   -0.8087 H   0  0  0  0  0  0  0  0  0  0  0  0
   -0.0689    0.5922    1.8345 H   0  0  0  0  0  0  0  0  0  0  0  0
    0.1051    2.1099    0.9228 H   0  0  0  0  0  0  0  0  0  0  0  0
    2.3958   -1.6750   -0.8220 H   0  0  0  0  0  0  0  0  0  0  0  0
    3.2929   -1.6770    0.7317 H   0  0  0  0  0  0  0  0  0  0  0  0
    3.4730   -0.3199   -0.4289 H   0  0  0  0  0  0  0  0  0  0  0  0
  1  2  1  0  0  0  0
  2  3  1  0  0  0  0
  3  4  1  0  0  0  0
  4  5  1  0  0  0  0
  5  6  2  0  0  0  0
  5  7  1  0  0  0  0
  7  8  1  0  0  0  0
  1  9  1  0  0  0  0
  1 10  1  0  0  0  0
  1 11  1  0  0  0  0
  2 12  1  0  0  0  0
  2 13  1  0  0  0  0
  3 14  1  0  0  0  0
  3 15  1  0  0  0  0
  4 16  1  0  0  0  0
  4 17  1  0  0  0  0
  8 18  1  0  0  0  0
  8 19  1  0  0  0  0
  8 20  1  0  0  0  0
M  END
