 xtb: 6.7.1 (edcfbbe)
          04112516193D

 13 12  0     0  0            999 V2000
    2.9375   -0.0280   -0.2930 C   0  0  0  0  0  0  0  0  0  0  0  0
    1.5255   -0.0450    0.1765 C   0  0  0  0  0  0  0  0  0  0  0  0
    1.1111   -0.6779    1.1213 O   0  0  0  0  0  0  0  0  0  0  0  0
    0.5719    0.8290   -0.6407 C   0  0  0  0  0  0  0  0  0  0  0  0
   -0.7166    0.8473   -0.0459 O   0  0  0  0  0  0  0  0  0  0  0  0
   -1.4208   -0.3165   -0.0986 N   0  0  0  0  0  0  0  0  0  0  0  0
   -0.9936   -1.1905   -0.7871 O   0  0  0  0  0  0  0  0  0  0  0  0
   -2.4224   -0.3037    0.5438 O   0  0  0  0  0  0  0  0  0  0  0  0
    3.5312   -0.7249    0.2906 H   0  0  0  0  0  0  0  0  0  0  0  0
    2.9815   -0.2905   -1.3462 H   0  0  0  0  0  0  0  0  0  0  0  0
    3.3408    0.9757   -0.1828 H   0  0  0  0  0  0  0  0  0  0  0  0
    0.5181    0.4538   -1.6679 H   0  0  0  0  0  0  0  0  0  0  0  0
    0.8895    1.8712   -0.6359 H   0  0  0  0  0  0  0  0  0  0  0  0
  1  2  1  0  0  0  0
  2  3  2  0  0  0  0
  2  4  1  0  0  0  0
  4  5  1  0  0  0  0
  5  6  1  0  0  0  0
  6  7  4  0  0  0  0
  6  8  4  0  0  0  0
  1  9  1  0  0  0  0
  1 10  1  0  0  0  0
  1 11  1  0  0  0  0
  4 12  1  0  0  0  0
  4 13  1  0  0  0  0
M  END
