 xtb: 6.7.1 (edcfbbe)
          04112516123D

 19 18  0     0  0            999 V2000
   -2.9613   -0.7804   -0.2155 C   0  0  0  0  0  0  0  0  0  0  0  0
   -2.4365    0.5107    0.4031 C   0  0  0  0  0  0  0  0  0  0  0  0
   -1.0990    0.9614   -0.1860 C   0  0  0  0  0  0  0  0  0  0  0  0
    0.0576    0.0279    0.1640 C   0  0  0  0  0  0  0  0  0  0  0  0
    1.3907    0.5769   -0.3567 C   0  0  0  0  0  0  0  0  0  0  0  0
    2.4888   -0.3096   -0.0312 C   0  0  0  0  0  0  0  0  0  0  0  0
    3.3781   -1.0592    0.2518 C   0  0  0  0  0  0  0  0  0  0  0  0
   -3.9474   -1.0129    0.1797 H   0  0  0  0  0  0  0  0  0  0  0  0
   -2.3029   -1.6160    0.0063 H   0  0  0  0  0  0  0  0  0  0  0  0
   -3.0400   -0.6796   -1.2957 H   0  0  0  0  0  0  0  0  0  0  0  0
   -3.1712    1.3026    0.2401 H   0  0  0  0  0  0  0  0  0  0  0  0
   -2.3281    0.3780    1.4820 H   0  0  0  0  0  0  0  0  0  0  0  0
   -0.8710    1.9608    0.1936 H   0  0  0  0  0  0  0  0  0  0  0  0
   -1.1917    1.0331   -1.2725 H   0  0  0  0  0  0  0  0  0  0  0  0
   -0.1106   -0.9587   -0.2708 H   0  0  0  0  0  0  0  0  0  0  0  0
    0.1171   -0.0909    1.2486 H   0  0  0  0  0  0  0  0  0  0  0  0
    1.5859    1.5580    0.0852 H   0  0  0  0  0  0  0  0  0  0  0  0
    1.3423    0.6953   -1.4427 H   0  0  0  0  0  0  0  0  0  0  0  0
    4.1660   -1.7079    0.4927 H   0  0  0  0  0  0  0  0  0  0  0  0
  1  2  1  0  0  0  0
  2  3  1  0  0  0  0
  3  4  1  0  0  0  0
  4  5  1  0  0  0  0
  5  6  1  0  0  0  0
  6  7  3  0  0  0  0
  1  8  1  0  0  0  0
  1  9  1  0  0  0  0
  1 10  1  0  0  0  0
  2 11  1  0  0  0  0
  2 12  1  0  0  0  0
  3 13  1  0  0  0  0
  3 14  1  0  0  0  0
  4 15  1  0  0  0  0
  4 16  1  0  0  0  0
  5 17  1  0  0  0  0
  5 18  1  0  0  0  0
  7 19  1  0  0  0  0
M  END
