 xtb: 6.7.1 (edcfbbe)
          04112514203D

 23 22  0     0  0            999 V2000
    3.2800    0.4005    0.0832 C   0  0  0  0  0  0  0  0  0  0  0  0
    1.8392    0.3297   -0.4115 C   0  0  0  0  0  0  0  0  0  0  0  0
    1.0159   -0.6585    0.4142 C   0  0  0  0  0  0  0  0  0  0  0  0
   -0.3917   -0.9411   -0.1256 C   0  0  0  0  0  0  0  0  0  0  0  0
   -1.4987    0.0116    0.3474 C   0  0  0  0  0  0  0  0  0  0  0  0
   -1.4250    1.3872   -0.3114 C   0  0  0  0  0  0  0  0  0  0  0  0
   -2.8637   -0.6158    0.0577 C   0  0  0  0  0  0  0  0  0  0  0  0
    3.7636   -0.5698   -0.0073 H   0  0  0  0  0  0  0  0  0  0  0  0
    3.8486    1.1232   -0.4971 H   0  0  0  0  0  0  0  0  0  0  0  0
    3.3092    0.7000    1.1287 H   0  0  0  0  0  0  0  0  0  0  0  0
    1.8323    0.0168   -1.4580 H   0  0  0  0  0  0  0  0  0  0  0  0
    1.4001    1.3255   -0.3618 H   0  0  0  0  0  0  0  0  0  0  0  0
    1.5657   -1.6034    0.4368 H   0  0  0  0  0  0  0  0  0  0  0  0
    0.9455   -0.3016    1.4442 H   0  0  0  0  0  0  0  0  0  0  0  0
   -0.3667   -0.9481   -1.2176 H   0  0  0  0  0  0  0  0  0  0  0  0
   -0.6733   -1.9464    0.1976 H   0  0  0  0  0  0  0  0  0  0  0  0
   -1.4042    0.1392    1.4321 H   0  0  0  0  0  0  0  0  0  0  0  0
   -0.5446    1.9337    0.0119 H   0  0  0  0  0  0  0  0  0  0  0  0
   -1.3957    1.2880   -1.3944 H   0  0  0  0  0  0  0  0  0  0  0  0
   -2.3001    1.9765   -0.0453 H   0  0  0  0  0  0  0  0  0  0  0  0
   -3.6643    0.0375    0.3968 H   0  0  0  0  0  0  0  0  0  0  0  0
   -2.9657   -1.5723    0.5653 H   0  0  0  0  0  0  0  0  0  0  0  0
   -2.9838   -0.7792   -1.0111 H   0  0  0  0  0  0  0  0  0  0  0  0
  1  2  1  0  0  0  0
  2  3  1  0  0  0  0
  3  4  1  0  0  0  0
  4  5  1  0  0  0  0
  5  6  1  0  0  0  0
  5  7  1  0  0  0  0
  1  8  1  0  0  0  0
  1  9  1  0  0  0  0
  1 10  1  0  0  0  0
  2 11  1  0  0  0  0
  2 12  1  0  0  0  0
  3 13  1  0  0  0  0
  3 14  1  0  0  0  0
  4 15  1  0  0  0  0
  4 16  1  0  0  0  0
  5 17  1  0  0  0  0
  6 18  1  0  0  0  0
  6 19  1  0  0  0  0
  6 20  1  0  0  0  0
  7 21  1  0  0  0  0
  7 22  1  0  0  0  0
  7 23  1  0  0  0  0
M  END
