 xtb: 6.7.1 (edcfbbe)
          04112514233D

 18 17  0     0  0            999 V2000
    2.2649    0.7775   -0.4250 C   0  0  0  0  0  0  0  0  0  0  0  0
    1.9212   -0.5590    0.2231 C   0  0  0  0  0  0  0  0  0  0  0  0
    0.4959   -0.5931    0.7769 C   0  0  0  0  0  0  0  0  0  0  0  0
   -0.5872   -0.6101   -0.3213 C   0  0  0  0  0  0  0  0  0  0  0  0
   -1.5331    0.5402   -0.1898 C   0  0  0  0  0  0  0  0  0  0  0  0
   -2.8406    0.4271   -0.0494 C   0  0  0  0  0  0  0  0  0  0  0  0
    3.2809    0.7621   -0.8118 H   0  0  0  0  0  0  0  0  0  0  0  0
    2.1870    1.5816    0.3037 H   0  0  0  0  0  0  0  0  0  0  0  0
    1.5907    0.9971   -1.2492 H   0  0  0  0  0  0  0  0  0  0  0  0
    2.0453   -1.3637   -0.5050 H   0  0  0  0  0  0  0  0  0  0  0  0
    2.6205   -0.7439    1.0418 H   0  0  0  0  0  0  0  0  0  0  0  0
    0.3833   -1.4776    1.4055 H   0  0  0  0  0  0  0  0  0  0  0  0
    0.3492    0.2781    1.4193 H   0  0  0  0  0  0  0  0  0  0  0  0
   -0.1072   -0.5524   -1.3013 H   0  0  0  0  0  0  0  0  0  0  0  0
   -1.1474   -1.5452   -0.2865 H   0  0  0  0  0  0  0  0  0  0  0  0
   -1.0716    1.5195   -0.2078 H   0  0  0  0  0  0  0  0  0  0  0  0
   -3.4835    1.2859    0.0434 H   0  0  0  0  0  0  0  0  0  0  0  0
   -3.3254   -0.5353   -0.0261 H   0  0  0  0  0  0  0  0  0  0  0  0
  1  2  1  0  0  0  0
  2  3  1  0  0  0  0
  3  4  1  0  0  0  0
  4  5  1  0  0  0  0
  5  6  2  0  0  0  0
  1  7  1  0  0  0  0
  1  8  1  0  0  0  0
  1  9  1  0  0  0  0
  2 10  1  0  0  0  0
  2 11  1  0  0  0  0
  3 12  1  0  0  0  0
  3 13  1  0  0  0  0
  4 14  1  0  0  0  0
  4 15  1  0  0  0  0
  5 16  1  0  0  0  0
  6 17  1  0  0  0  0
  6 18  1  0  0  0  0
M  END
