 xtb: 6.7.1 (edcfbbe)
          04112517153D

 20 19  0     0  0            999 V2000
   -3.3354    0.5840    0.7022 C   0  0  0  0  0  0  0  0  0  0  0  0
   -2.8144   -0.5578   -0.1637 C   0  0  0  0  0  0  0  0  0  0  0  0
   -1.4135   -0.2988   -0.7166 C   0  0  0  0  0  0  0  0  0  0  0  0
   -0.3466   -0.2433    0.3739 C   0  0  0  0  0  0  0  0  0  0  0  0
    1.0458   -0.2114   -0.1971 C   0  0  0  0  0  0  0  0  0  0  0  0
    1.3439   -0.4255   -1.3524 O   0  0  0  0  0  0  0  0  0  0  0  0
    1.9459    0.0769    0.7412 O   0  0  0  0  0  0  0  0  0  0  0  0
    3.3199    0.1186    0.3467 C   0  0  0  0  0  0  0  0  0  0  0  0
   -3.3001    1.5223    0.1535 H   0  0  0  0  0  0  0  0  0  0  0  0
   -4.3663    0.3950    0.9908 H   0  0  0  0  0  0  0  0  0  0  0  0
   -2.7449    0.6899    1.6080 H   0  0  0  0  0  0  0  0  0  0  0  0
   -2.8085   -1.4822    0.4170 H   0  0  0  0  0  0  0  0  0  0  0  0
   -3.4933   -0.7012   -1.0064 H   0  0  0  0  0  0  0  0  0  0  0  0
   -1.4063    0.6399   -1.2740 H   0  0  0  0  0  0  0  0  0  0  0  0
   -1.1467   -1.0924   -1.4177 H   0  0  0  0  0  0  0  0  0  0  0  0
   -0.4121   -1.1291    1.0108 H   0  0  0  0  0  0  0  0  0  0  0  0
   -0.4654    0.6305    1.0142 H   0  0  0  0  0  0  0  0  0  0  0  0
    3.4650    0.8826   -0.4179 H   0  0  0  0  0  0  0  0  0  0  0  0
    3.6218   -0.8486   -0.0568 H   0  0  0  0  0  0  0  0  0  0  0  0
    3.8755    0.3570    1.2479 H   0  0  0  0  0  0  0  0  0  0  0  0
  1  2  1  0  0  0  0
  2  3  1  0  0  0  0
  3  4  1  0  0  0  0
  4  5  1  0  0  0  0
  5  6  2  0  0  0  0
  5  7  1  0  0  0  0
  7  8  1  0  0  0  0
  1  9  1  0  0  0  0
  1 10  1  0  0  0  0
  1 11  1  0  0  0  0
  2 12  1  0  0  0  0
  2 13  1  0  0  0  0
  3 14  1  0  0  0  0
  3 15  1  0  0  0  0
  4 16  1  0  0  0  0
  4 17  1  0  0  0  0
  8 18  1  0  0  0  0
  8 19  1  0  0  0  0
  8 20  1  0  0  0  0
M  END
