 xtb: 6.7.1 (edcfbbe)
          04112516333D

 17 16  0     0  0            999 V2000
   -4.0801    0.0609   -0.1762 C   0  0  0  0  0  0  0  0  0  0  0  0
   -2.9487   -0.8486    0.2905 C   0  0  0  0  0  0  0  0  0  0  0  0
   -1.6067   -0.5281   -0.3675 C   0  0  0  0  0  0  0  0  0  0  0  0
   -1.0448    0.8283    0.0530 C   0  0  0  0  0  0  0  0  0  0  0  0
    0.3156    1.1093   -0.5521 C   0  0  0  0  0  0  0  0  0  0  0  0
    1.7037   -0.1158    0.1411 Br  0  0  0  0  0  0  0  0  0  0  0  0
   -5.0248   -0.2700    0.2479 H   0  0  0  0  0  0  0  0  0  0  0  0
   -4.1648    0.0367   -1.2603 H   0  0  0  0  0  0  0  0  0  0  0  0
   -3.9131    1.0885    0.1357 H   0  0  0  0  0  0  0  0  0  0  0  0
   -2.8451   -0.7749    1.3752 H   0  0  0  0  0  0  0  0  0  0  0  0
   -3.2075   -1.8828    0.0544 H   0  0  0  0  0  0  0  0  0  0  0  0
   -0.8905   -1.3067   -0.0922 H   0  0  0  0  0  0  0  0  0  0  0  0
   -1.7226   -0.5517   -1.4539 H   0  0  0  0  0  0  0  0  0  0  0  0
   -1.7105    1.6259   -0.2830 H   0  0  0  0  0  0  0  0  0  0  0  0
   -0.9811    0.8765    1.1424 H   0  0  0  0  0  0  0  0  0  0  0  0
    0.6725    2.1073   -0.3058 H   0  0  0  0  0  0  0  0  0  0  0  0
    0.3184    0.9644   -1.6310 H   0  0  0  0  0  0  0  0  0  0  0  0
  1  2  1  0  0  0  0
  2  3  1  0  0  0  0
  3  4  1  0  0  0  0
  4  5  1  0  0  0  0
  5  6  1  0  0  0  0
  1  7  1  0  0  0  0
  1  8  1  0  0  0  0
  1  9  1  0  0  0  0
  2 10  1  0  0  0  0
  2 11  1  0  0  0  0
  3 12  1  0  0  0  0
  3 13  1  0  0  0  0
  4 14  1  0  0  0  0
  4 15  1  0  0  0  0
  5 16  1  0  0  0  0
  5 17  1  0  0  0  0
M  END
