 xtb: 6.7.1 (edcfbbe)
          04112517153D

 20 19  0     0  0            999 V2000
   -2.3413   -1.2948   -0.2006 C   0  0  0  0  0  0  0  0  0  0  0  0
   -1.9225   -0.2141    0.7903 C   0  0  0  0  0  0  0  0  0  0  0  0
   -1.5564    1.1124    0.1225 C   0  0  0  0  0  0  0  0  0  0  0  0
   -0.3673    1.0001   -0.8408 C   0  0  0  0  0  0  0  0  0  0  0  0
    0.8526    0.4968   -0.1166 C   0  0  0  0  0  0  0  0  0  0  0  0
    1.4119    1.0703    0.7948 O   0  0  0  0  0  0  0  0  0  0  0  0
    1.2574   -0.6778   -0.5895 O   0  0  0  0  0  0  0  0  0  0  0  0
    2.4082   -1.2739    0.0135 C   0  0  0  0  0  0  0  0  0  0  0  0
   -3.1332   -0.9273   -0.8487 H   0  0  0  0  0  0  0  0  0  0  0  0
   -1.5010   -1.6066   -0.8154 H   0  0  0  0  0  0  0  0  0  0  0  0
   -2.7106   -2.1671    0.3327 H   0  0  0  0  0  0  0  0  0  0  0  0
   -2.7445   -0.0283    1.4849 H   0  0  0  0  0  0  0  0  0  0  0  0
   -1.0719   -0.5674    1.3793 H   0  0  0  0  0  0  0  0  0  0  0  0
   -1.3037    1.8381    0.8982 H   0  0  0  0  0  0  0  0  0  0  0  0
   -2.4162    1.4886   -0.4331 H   0  0  0  0  0  0  0  0  0  0  0  0
   -0.1382    1.9916   -1.2337 H   0  0  0  0  0  0  0  0  0  0  0  0
   -0.5905    0.3256   -1.6646 H   0  0  0  0  0  0  0  0  0  0  0  0
    3.2619   -0.5999   -0.0666 H   0  0  0  0  0  0  0  0  0  0  0  0
    2.5835   -2.1945   -0.5338 H   0  0  0  0  0  0  0  0  0  0  0  0
    2.2147   -1.4755    1.0679 H   0  0  0  0  0  0  0  0  0  0  0  0
  1  2  1  0  0  0  0
  2  3  1  0  0  0  0
  3  4  1  0  0  0  0
  4  5  1  0  0  0  0
  5  6  2  0  0  0  0
  5  7  1  0  0  0  0
  7  8  1  0  0  0  0
  1  9  1  0  0  0  0
  1 10  1  0  0  0  0
  1 11  1  0  0  0  0
  2 12  1  0  0  0  0
  2 13  1  0  0  0  0
  3 14  1  0  0  0  0
  3 15  1  0  0  0  0
  4 16  1  0  0  0  0
  4 17  1  0  0  0  0
  8 18  1  0  0  0  0
  8 19  1  0  0  0  0
  8 20  1  0  0  0  0
M  END
