 xtb: 6.7.1 (edcfbbe)
          04112514133D

 23 22  0     0  0            999 V2000
    3.2912    0.3762    0.1337 C   0  0  0  0  0  0  0  0  0  0  0  0
    1.8446    0.3725   -0.3490 C   0  0  0  0  0  0  0  0  0  0  0  0
    1.0211   -0.6937    0.3718 C   0  0  0  0  0  0  0  0  0  0  0  0
   -0.3877   -0.9213   -0.1886 C   0  0  0  0  0  0  0  0  0  0  0  0
   -1.4773    0.0357    0.3184 C   0  0  0  0  0  0  0  0  0  0  0  0
   -1.4712    1.3811   -0.4039 C   0  0  0  0  0  0  0  0  0  0  0  0
   -2.8503   -0.6176    0.1473 C   0  0  0  0  0  0  0  0  0  0  0  0
    3.7605   -0.5865   -0.0569 H   0  0  0  0  0  0  0  0  0  0  0  0
    3.8636    1.1453   -0.3793 H   0  0  0  0  0  0  0  0  0  0  0  0
    3.3342    0.5713    1.2030 H   0  0  0  0  0  0  0  0  0  0  0  0
    1.8226    0.1785   -1.4236 H   0  0  0  0  0  0  0  0  0  0  0  0
    1.4165    1.3604   -0.1806 H   0  0  0  0  0  0  0  0  0  0  0  0
    1.5685   -1.6374    0.2974 H   0  0  0  0  0  0  0  0  0  0  0  0
    0.9528   -0.4429    1.4329 H   0  0  0  0  0  0  0  0  0  0  0  0
   -0.3545   -0.8848   -1.2796 H   0  0  0  0  0  0  0  0  0  0  0  0
   -0.6883   -1.9338    0.0919 H   0  0  0  0  0  0  0  0  0  0  0  0
   -1.3137    0.2122    1.3878 H   0  0  0  0  0  0  0  0  0  0  0  0
   -0.5575    1.9333   -0.2093 H   0  0  0  0  0  0  0  0  0  0  0  0
   -1.5641    1.2341   -1.4779 H   0  0  0  0  0  0  0  0  0  0  0  0
   -2.3088    1.9892   -0.0684 H   0  0  0  0  0  0  0  0  0  0  0  0
   -3.6354    0.0433    0.5073 H   0  0  0  0  0  0  0  0  0  0  0  0
   -2.9077   -1.5503    0.7037 H   0  0  0  0  0  0  0  0  0  0  0  0
   -3.0368   -0.8313   -0.9031 H   0  0  0  0  0  0  0  0  0  0  0  0
  1  2  1  0  0  0  0
  2  3  1  0  0  0  0
  3  4  1  0  0  0  0
  4  5  1  0  0  0  0
  5  6  1  0  0  0  0
  5  7  1  0  0  0  0
  1  8  1  0  0  0  0
  1  9  1  0  0  0  0
  1 10  1  0  0  0  0
  2 11  1  0  0  0  0
  2 12  1  0  0  0  0
  3 13  1  0  0  0  0
  3 14  1  0  0  0  0
  4 15  1  0  0  0  0
  4 16  1  0  0  0  0
  5 17  1  0  0  0  0
  6 18  1  0  0  0  0
  6 19  1  0  0  0  0
  6 20  1  0  0  0  0
  7 21  1  0  0  0  0
  7 22  1  0  0  0  0
  7 23  1  0  0  0  0
M  END
