 xtb: 6.7.1 (edcfbbe)
          04112516123D

 19 18  0     0  0            999 V2000
   -2.3391   -0.9434   -0.4236 C   0  0  0  0  0  0  0  0  0  0  0  0
   -2.3639    0.3739    0.3431 C   0  0  0  0  0  0  0  0  0  0  0  0
   -1.1608    1.2780    0.0651 C   0  0  0  0  0  0  0  0  0  0  0  0
    0.1826    0.6935    0.5231 C   0  0  0  0  0  0  0  0  0  0  0  0
    0.9697    0.0422   -0.6213 C   0  0  0  0  0  0  0  0  0  0  0  0
    2.2098   -0.5318   -0.1403 C   0  0  0  0  0  0  0  0  0  0  0  0
    3.2263   -1.0015    0.2828 C   0  0  0  0  0  0  0  0  0  0  0  0
   -3.2641   -1.4908   -0.2561 H   0  0  0  0  0  0  0  0  0  0  0  0
   -1.5150   -1.5710   -0.0946 H   0  0  0  0  0  0  0  0  0  0  0  0
   -2.2394   -0.7619   -1.4917 H   0  0  0  0  0  0  0  0  0  0  0  0
   -3.2709    0.9208    0.0734 H   0  0  0  0  0  0  0  0  0  0  0  0
   -2.4137    0.1657    1.4146 H   0  0  0  0  0  0  0  0  0  0  0  0
   -1.3314    2.2230    0.5853 H   0  0  0  0  0  0  0  0  0  0  0  0
   -1.1182    1.4998   -1.0035 H   0  0  0  0  0  0  0  0  0  0  0  0
    0.0154   -0.0430    1.3118 H   0  0  0  0  0  0  0  0  0  0  0  0
    0.8018    1.4862    0.9489 H   0  0  0  0  0  0  0  0  0  0  0  0
    1.2020    0.7941   -1.3806 H   0  0  0  0  0  0  0  0  0  0  0  0
    0.3786   -0.7457   -1.0920 H   0  0  0  0  0  0  0  0  0  0  0  0
    4.1205   -1.4153    0.6415 H   0  0  0  0  0  0  0  0  0  0  0  0
  1  2  1  0  0  0  0
  2  3  1  0  0  0  0
  3  4  1  0  0  0  0
  4  5  1  0  0  0  0
  5  6  1  0  0  0  0
  6  7  3  0  0  0  0
  1  8  1  0  0  0  0
  1  9  1  0  0  0  0
  1 10  1  0  0  0  0
  2 11  1  0  0  0  0
  2 12  1  0  0  0  0
  3 13  1  0  0  0  0
  3 14  1  0  0  0  0
  4 15  1  0  0  0  0
  4 16  1  0  0  0  0
  5 17  1  0  0  0  0
  5 18  1  0  0  0  0
  7 19  1  0  0  0  0
M  END
