 xtb: 6.7.1 (edcfbbe)
          04112516293D

 20 19  0     0  0            999 V2000
   -3.2945    0.5356   -0.5505 C   0  0  0  0  0  0  0  0  0  0  0  0
   -2.3015   -0.6138   -0.4267 C   0  0  0  0  0  0  0  0  0  0  0  0
   -1.2771   -0.3963    0.6862 C   0  0  0  0  0  0  0  0  0  0  0  0
   -0.3544    0.7975    0.4096 C   0  0  0  0  0  0  0  0  0  0  0  0
    1.0024    0.5131    0.7805 O   0  0  0  0  0  0  0  0  0  0  0  0
    1.7506   -0.1600   -0.0900 C   0  0  0  0  0  0  0  0  0  0  0  0
    1.3500   -0.5163   -1.1789 O   0  0  0  0  0  0  0  0  0  0  0  0
    3.1281   -0.4188    0.4401 C   0  0  0  0  0  0  0  0  0  0  0  0
   -4.0129    0.3249   -1.3385 H   0  0  0  0  0  0  0  0  0  0  0  0
   -3.8358    0.6717    0.3823 H   0  0  0  0  0  0  0  0  0  0  0  0
   -2.7852    1.4647   -0.7926 H   0  0  0  0  0  0  0  0  0  0  0  0
   -2.8455   -1.5372   -0.2199 H   0  0  0  0  0  0  0  0  0  0  0  0
   -1.7691   -0.7473   -1.3714 H   0  0  0  0  0  0  0  0  0  0  0  0
   -1.7856   -0.2609    1.6409 H   0  0  0  0  0  0  0  0  0  0  0  0
   -0.6551   -1.2911    0.7639 H   0  0  0  0  0  0  0  0  0  0  0  0
   -0.3671    1.0449   -0.6565 H   0  0  0  0  0  0  0  0  0  0  0  0
   -0.6241    1.6722    1.0001 H   0  0  0  0  0  0  0  0  0  0  0  0
    3.3366    0.2398    1.2758 H   0  0  0  0  0  0  0  0  0  0  0  0
    3.8513   -0.2846   -0.3588 H   0  0  0  0  0  0  0  0  0  0  0  0
    3.1792   -1.4539    0.7714 H   0  0  0  0  0  0  0  0  0  0  0  0
  1  2  1  0  0  0  0
  2  3  1  0  0  0  0
  3  4  1  0  0  0  0
  4  5  1  0  0  0  0
  5  6  1  0  0  0  0
  6  7  2  0  0  0  0
  6  8  1  0  0  0  0
  1  9  1  0  0  0  0
  1 10  1  0  0  0  0
  1 11  1  0  0  0  0
  2 12  1  0  0  0  0
  2 13  1  0  0  0  0
  3 14  1  0  0  0  0
  3 15  1  0  0  0  0
  4 16  1  0  0  0  0
  4 17  1  0  0  0  0
  8 18  1  0  0  0  0
  8 19  1  0  0  0  0
  8 20  1  0  0  0  0
M  END
