 xtb: 6.7.1 (edcfbbe)
          04112518233D

 26 25  0     0  0            999 V2000
    3.1516   -0.6285   -1.2952 C   0  0  0  0  0  0  0  0  0  0  0  0
    1.8867   -0.5681   -0.4494 C   0  0  0  0  0  0  0  0  0  0  0  0
    1.7669   -1.8142    0.4290 C   0  0  0  0  0  0  0  0  0  0  0  0
    0.6783   -0.3695   -1.3025 C   0  0  0  0  0  0  0  0  0  0  0  0
   -0.5446   -0.2761   -0.9962 N   0  0  0  0  0  0  0  0  0  0  0  0
   -0.8732   -0.3838    0.3706 O   0  0  0  0  0  0  0  0  0  0  0  0
   -2.2045   -0.2323    0.6613 C   0  0  0  0  0  0  0  0  0  0  0  0
   -2.5249   -0.3379    1.8310 O   0  0  0  0  0  0  0  0  0  0  0  0
   -3.0069    0.0143   -0.3658 N   0  0  0  0  0  0  0  0  0  0  0  0
   -4.4342    0.1899   -0.2267 C   0  0  0  0  0  0  0  0  0  0  0  0
    1.9761    0.8721    0.7409 S   0  0  0  0  0  0  0  0  0  0  0  0
    2.0253    2.3039   -0.3832 C   0  0  0  0  0  0  0  0  0  0  0  0
    3.2241    0.2272   -1.9611 H   0  0  0  0  0  0  0  0  0  0  0  0
    4.0248   -0.6436   -0.6484 H   0  0  0  0  0  0  0  0  0  0  0  0
    3.1454   -1.5358   -1.8951 H   0  0  0  0  0  0  0  0  0  0  0  0
    1.6696   -2.6989   -0.1964 H   0  0  0  0  0  0  0  0  0  0  0  0
    0.9008   -1.7452    1.0830 H   0  0  0  0  0  0  0  0  0  0  0  0
    2.6567   -1.9087    1.0460 H   0  0  0  0  0  0  0  0  0  0  0  0
    0.8383   -0.2579   -2.3682 H   0  0  0  0  0  0  0  0  0  0  0  0
   -2.5889    0.0619   -1.2866 H   0  0  0  0  0  0  0  0  0  0  0  0
   -4.7244    1.1772   -0.5827 H   0  0  0  0  0  0  0  0  0  0  0  0
   -4.6843    0.0952    0.8281 H   0  0  0  0  0  0  0  0  0  0  0  0
   -4.9615   -0.5741   -0.7961 H   0  0  0  0  0  0  0  0  0  0  0  0
    2.9291    2.2784   -0.9818 H   0  0  0  0  0  0  0  0  0  0  0  0
    2.0371    3.1731    0.2660 H   0  0  0  0  0  0  0  0  0  0  0  0
    1.1353    2.3171   -1.0041 H   0  0  0  0  0  0  0  0  0  0  0  0
  1  2  1  0  0  0  0
  2  3  1  0  0  0  0
  2  4  1  0  0  0  0
  4  5  2  0  0  0  0
  5  6  1  0  0  0  0
  6  7  1  0  0  0  0
  7  8  2  0  0  0  0
  7  9  4  0  0  0  0
  9 10  1  0  0  0  0
  2 11  1  0  0  0  0
 11 12  1  0  0  0  0
  1 13  1  0  0  0  0
  1 14  1  0  0  0  0
  1 15  1  0  0  0  0
  3 16  1  0  0  0  0
  3 17  1  0  0  0  0
  3 18  1  0  0  0  0
  4 19  1  0  0  0  0
  9 20  1  0  0  0  0
 10 21  1  0  0  0  0
 10 22  1  0  0  0  0
 10 23  1  0  0  0  0
 12 24  1  0  0  0  0
 12 25  1  0  0  0  0
 12 26  1  0  0  0  0
M  END
