 xtb: 6.7.1 (edcfbbe)
          04112516113D

 17 16  0     0  0            999 V2000
   -3.3567    0.3940   -0.2510 C   0  0  0  0  0  0  0  0  0  0  0  0
   -2.1652    0.0728    0.6433 C   0  0  0  0  0  0  0  0  0  0  0  0
   -0.8581    0.0786   -0.1470 C   0  0  0  0  0  0  0  0  0  0  0  0
    0.3434   -0.2552    0.7518 C   0  0  0  0  0  0  0  0  0  0  0  0
    1.6034   -0.2176   -0.0738 C   0  0  0  0  0  0  0  0  0  0  0  0
    2.0902   -1.1957   -0.5949 O   0  0  0  0  0  0  0  0  0  0  0  0
    2.1621    0.9768   -0.2565 O   0  0  0  0  0  0  0  0  0  0  0  0
   -3.4420   -0.3387   -1.0502 H   0  0  0  0  0  0  0  0  0  0  0  0
   -4.2781    0.3824    0.3251 H   0  0  0  0  0  0  0  0  0  0  0  0
   -3.2443    1.3780   -0.7003 H   0  0  0  0  0  0  0  0  0  0  0  0
   -2.3068   -0.9088    1.0988 H   0  0  0  0  0  0  0  0  0  0  0  0
   -2.1068    0.8089    1.4472 H   0  0  0  0  0  0  0  0  0  0  0  0
   -0.9121   -0.6592   -0.9504 H   0  0  0  0  0  0  0  0  0  0  0  0
   -0.7199    1.0586   -0.6082 H   0  0  0  0  0  0  0  0  0  0  0  0
    0.2256   -1.2624    1.1516 H   0  0  0  0  0  0  0  0  0  0  0  0
    0.3998    0.4548    1.5773 H   0  0  0  0  0  0  0  0  0  0  0  0
    1.7129    1.6976    0.2218 H   0  0  0  0  0  0  0  0  0  0  0  0
  1  2  1  0  0  0  0
  2  3  1  0  0  0  0
  3  4  1  0  0  0  0
  4  5  1  0  0  0  0
  5  6  2  0  0  0  0
  5  7  1  0  0  0  0
  1  8  1  0  0  0  0
  1  9  1  0  0  0  0
  1 10  1  0  0  0  0
  2 11  1  0  0  0  0
  2 12  1  0  0  0  0
  3 13  1  0  0  0  0
  3 14  1  0  0  0  0
  4 15  1  0  0  0  0
  4 16  1  0  0  0  0
  7 17  1  0  0  0  0
M  END
