 xtb: 6.7.1 (edcfbbe)
          04112514233D

 23 22  0     0  0            999 V2000
    1.7411    1.3839    0.6511 C   0  0  0  0  0  0  0  0  0  0  0  0
    1.6567    0.2250   -0.3404 C   0  0  0  0  0  0  0  0  0  0  0  0
    2.9918    0.0535   -1.0638 C   0  0  0  0  0  0  0  0  0  0  0  0
    1.2806   -1.0928    0.3485 C   0  0  0  0  0  0  0  0  0  0  0  0
   -0.1064   -1.0978    0.9856 C   0  0  0  0  0  0  0  0  0  0  0  0
   -1.1252   -0.9539   -0.0146 O   0  0  0  0  0  0  0  0  0  0  0  0
   -1.8291    0.1699   -0.0708 C   0  0  0  0  0  0  0  0  0  0  0  0
   -1.6943    1.0933    0.7062 O   0  0  0  0  0  0  0  0  0  0  0  0
   -2.8069    0.1427   -1.2078 C   0  0  0  0  0  0  0  0  0  0  0  0
    2.1157    2.2749    0.1528 H   0  0  0  0  0  0  0  0  0  0  0  0
    2.4145    1.1375    1.4688 H   0  0  0  0  0  0  0  0  0  0  0  0
    0.7624    1.6225    1.0615 H   0  0  0  0  0  0  0  0  0  0  0  0
    0.8868    0.4616   -1.0847 H   0  0  0  0  0  0  0  0  0  0  0  0
    2.9393   -0.7595   -1.7837 H   0  0  0  0  0  0  0  0  0  0  0  0
    3.7801   -0.1682   -0.3484 H   0  0  0  0  0  0  0  0  0  0  0  0
    3.2554    0.9650   -1.5942 H   0  0  0  0  0  0  0  0  0  0  0  0
    2.0061   -1.3107    1.1332 H   0  0  0  0  0  0  0  0  0  0  0  0
    1.3170   -1.8981   -0.3875 H   0  0  0  0  0  0  0  0  0  0  0  0
   -0.2965   -2.0612    1.4638 H   0  0  0  0  0  0  0  0  0  0  0  0
   -0.2172   -0.2951    1.7187 H   0  0  0  0  0  0  0  0  0  0  0  0
   -2.2577    0.1809   -2.1454 H   0  0  0  0  0  0  0  0  0  0  0  0
   -3.4729    0.9962   -1.1370 H   0  0  0  0  0  0  0  0  0  0  0  0
   -3.3666   -0.7875   -1.1818 H   0  0  0  0  0  0  0  0  0  0  0  0
  1  2  1  0  0  0  0
  2  3  1  0  0  0  0
  2  4  1  0  0  0  0
  4  5  1  0  0  0  0
  5  6  1  0  0  0  0
  6  7  1  0  0  0  0
  7  8  2  0  0  0  0
  7  9  1  0  0  0  0
  1 10  1  0  0  0  0
  1 11  1  0  0  0  0
  1 12  1  0  0  0  0
  2 13  1  0  0  0  0
  3 14  1  0  0  0  0
  3 15  1  0  0  0  0
  3 16  1  0  0  0  0
  4 17  1  0  0  0  0
  4 18  1  0  0  0  0
  5 19  1  0  0  0  0
  5 20  1  0  0  0  0
  9 21  1  0  0  0  0
  9 22  1  0  0  0  0
  9 23  1  0  0  0  0
M  END
