 xtb: 6.7.1 (edcfbbe)
          04112516293D

 20 19  0     0  0            999 V2000
   -3.1540   -0.4262   -0.8019 C   0  0  0  0  0  0  0  0  0  0  0  0
   -2.7081    0.5597    0.2722 C   0  0  0  0  0  0  0  0  0  0  0  0
   -1.1984    0.7963    0.2797 C   0  0  0  0  0  0  0  0  0  0  0  0
   -0.4106   -0.4511    0.6730 C   0  0  0  0  0  0  0  0  0  0  0  0
    0.9729   -0.1352    0.8837 O   0  0  0  0  0  0  0  0  0  0  0  0
    1.7904   -0.1369   -0.1641 C   0  0  0  0  0  0  0  0  0  0  0  0
    1.4367   -0.4231   -1.2896 O   0  0  0  0  0  0  0  0  0  0  0  0
    3.1839    0.2562    0.2239 C   0  0  0  0  0  0  0  0  0  0  0  0
   -2.7891   -0.1148   -1.7780 H   0  0  0  0  0  0  0  0  0  0  0  0
   -2.7774   -1.4247   -0.5978 H   0  0  0  0  0  0  0  0  0  0  0  0
   -4.2392   -0.4737   -0.8397 H   0  0  0  0  0  0  0  0  0  0  0  0
   -3.1994    1.5185    0.0984 H   0  0  0  0  0  0  0  0  0  0  0  0
   -3.0208    0.1974    1.2531 H   0  0  0  0  0  0  0  0  0  0  0  0
   -0.8691    1.1211   -0.7102 H   0  0  0  0  0  0  0  0  0  0  0  0
   -0.9583    1.5868    0.9941 H   0  0  0  0  0  0  0  0  0  0  0  0
   -0.7564   -0.8476    1.6287 H   0  0  0  0  0  0  0  0  0  0  0  0
   -0.4773   -1.2166   -0.1048 H   0  0  0  0  0  0  0  0  0  0  0  0
    3.3067    0.1727    1.2982 H   0  0  0  0  0  0  0  0  0  0  0  0
    3.3470    1.2876   -0.0812 H   0  0  0  0  0  0  0  0  0  0  0  0
    3.8974   -0.3692   -0.3042 H   0  0  0  0  0  0  0  0  0  0  0  0
  1  2  1  0  0  0  0
  2  3  1  0  0  0  0
  3  4  1  0  0  0  0
  4  5  1  0  0  0  0
  5  6  1  0  0  0  0
  6  7  2  0  0  0  0
  6  8  1  0  0  0  0
  1  9  1  0  0  0  0
  1 10  1  0  0  0  0
  1 11  1  0  0  0  0
  2 12  1  0  0  0  0
  2 13  1  0  0  0  0
  3 14  1  0  0  0  0
  3 15  1  0  0  0  0
  4 16  1  0  0  0  0
  4 17  1  0  0  0  0
  8 18  1  0  0  0  0
  8 19  1  0  0  0  0
  8 20  1  0  0  0  0
M  END
