 xtb: 6.7.1 (edcfbbe)
          04112514233D

 18 17  0     0  0            999 V2000
    2.0346    0.8029   -0.5174 C   0  0  0  0  0  0  0  0  0  0  0  0
    1.3958    0.1440    0.6998 C   0  0  0  0  0  0  0  0  0  0  0  0
    0.6402   -1.1416    0.3601 C   0  0  0  0  0  0  0  0  0  0  0  0
   -0.6172   -0.9020   -0.4832 C   0  0  0  0  0  0  0  0  0  0  0  0
   -1.6082   -0.0408    0.2315 C   0  0  0  0  0  0  0  0  0  0  0  0
   -2.1088    1.0847   -0.2427 C   0  0  0  0  0  0  0  0  0  0  0  0
    2.6874    0.1009   -1.0318 H   0  0  0  0  0  0  0  0  0  0  0  0
    2.6265    1.6625   -0.2123 H   0  0  0  0  0  0  0  0  0  0  0  0
    1.2765    1.1465   -1.2158 H   0  0  0  0  0  0  0  0  0  0  0  0
    2.1790   -0.0955    1.4229 H   0  0  0  0  0  0  0  0  0  0  0  0
    0.7086    0.8484    1.1739 H   0  0  0  0  0  0  0  0  0  0  0  0
    1.3065   -1.8184   -0.1791 H   0  0  0  0  0  0  0  0  0  0  0  0
    0.3485   -1.6329    1.2915 H   0  0  0  0  0  0  0  0  0  0  0  0
   -0.3509   -0.4491   -1.4385 H   0  0  0  0  0  0  0  0  0  0  0  0
   -1.0806   -1.8714   -0.6891 H   0  0  0  0  0  0  0  0  0  0  0  0
   -1.9087   -0.3998    1.2081 H   0  0  0  0  0  0  0  0  0  0  0  0
   -2.8245    1.6710    0.3083 H   0  0  0  0  0  0  0  0  0  0  0  0
   -1.8259    1.4668   -1.2103 H   0  0  0  0  0  0  0  0  0  0  0  0
  1  2  1  0  0  0  0
  2  3  1  0  0  0  0
  3  4  1  0  0  0  0
  4  5  1  0  0  0  0
  5  6  2  0  0  0  0
  1  7  1  0  0  0  0
  1  8  1  0  0  0  0
  1  9  1  0  0  0  0
  2 10  1  0  0  0  0
  2 11  1  0  0  0  0
  3 12  1  0  0  0  0
  3 13  1  0  0  0  0
  4 14  1  0  0  0  0
  4 15  1  0  0  0  0
  5 16  1  0  0  0  0
  6 17  1  0  0  0  0
  6 18  1  0  0  0  0
M  END
