 xtb: 6.7.1 (edcfbbe)
          04112514133D

 23 22  0     0  0            999 V2000
    2.2634    0.8837    0.7200 C   0  0  0  0  0  0  0  0  0  0  0  0
    2.0280    0.0018   -0.5023 C   0  0  0  0  0  0  0  0  0  0  0  0
    1.0722   -1.1707   -0.2427 C   0  0  0  0  0  0  0  0  0  0  0  0
   -0.3977   -0.9254   -0.5984 C   0  0  0  0  0  0  0  0  0  0  0  0
   -1.1512    0.0634    0.3091 C   0  0  0  0  0  0  0  0  0  0  0  0
   -1.2153    1.4607   -0.3066 C   0  0  0  0  0  0  0  0  0  0  0  0
   -2.5727   -0.4339    0.5763 C   0  0  0  0  0  0  0  0  0  0  0  0
    1.3387    1.3294    1.0737 H   0  0  0  0  0  0  0  0  0  0  0  0
    2.6918    0.2967    1.5299 H   0  0  0  0  0  0  0  0  0  0  0  0
    2.9577    1.6853    0.4767 H   0  0  0  0  0  0  0  0  0  0  0  0
    2.9948   -0.3979   -0.8178 H   0  0  0  0  0  0  0  0  0  0  0  0
    1.6467    0.6060   -1.3276 H   0  0  0  0  0  0  0  0  0  0  0  0
    1.4050   -2.0227   -0.8408 H   0  0  0  0  0  0  0  0  0  0  0  0
    1.1430   -1.4669    0.8062 H   0  0  0  0  0  0  0  0  0  0  0  0
   -0.4628   -0.5871   -1.6347 H   0  0  0  0  0  0  0  0  0  0  0  0
   -0.9019   -1.8934   -0.5456 H   0  0  0  0  0  0  0  0  0  0  0  0
   -0.6315    0.1226    1.2709 H   0  0  0  0  0  0  0  0  0  0  0  0
   -1.6928    2.1571    0.3800 H   0  0  0  0  0  0  0  0  0  0  0  0
   -0.2241    1.8371   -0.5402 H   0  0  0  0  0  0  0  0  0  0  0  0
   -1.7975    1.4365   -1.2260 H   0  0  0  0  0  0  0  0  0  0  0  0
   -3.1165   -0.5447   -0.3597 H   0  0  0  0  0  0  0  0  0  0  0  0
   -3.1118    0.2725    1.2038 H   0  0  0  0  0  0  0  0  0  0  0  0
   -2.5561   -1.3967    1.0820 H   0  0  0  0  0  0  0  0  0  0  0  0
  1  2  1  0  0  0  0
  2  3  1  0  0  0  0
  3  4  1  0  0  0  0
  4  5  1  0  0  0  0
  5  6  1  0  0  0  0
  5  7  1  0  0  0  0
  1  8  1  0  0  0  0
  1  9  1  0  0  0  0
  1 10  1  0  0  0  0
  2 11  1  0  0  0  0
  2 12  1  0  0  0  0
  3 13  1  0  0  0  0
  3 14  1  0  0  0  0
  4 15  1  0  0  0  0
  4 16  1  0  0  0  0
  5 17  1  0  0  0  0
  6 18  1  0  0  0  0
  6 19  1  0  0  0  0
  6 20  1  0  0  0  0
  7 21  1  0  0  0  0
  7 22  1  0  0  0  0
  7 23  1  0  0  0  0
M  END
