 xtb: 6.7.1 (edcfbbe)
          04112516353D

 19 18  0     0  0            999 V2000
    3.3200    0.0418    0.5485 C   0  0  0  0  0  0  0  0  0  0  0  0
    2.1657    0.3974   -0.3810 C   0  0  0  0  0  0  0  0  0  0  0  0
    0.8248   -0.0490    0.1972 C   0  0  0  0  0  0  0  0  0  0  0  0
   -0.3412    0.3140   -0.7354 C   0  0  0  0  0  0  0  0  0  0  0  0
   -1.6306   -0.1799   -0.1288 C   0  0  0  0  0  0  0  0  0  0  0  0
   -2.0456   -1.3058   -0.3284 O   0  0  0  0  0  0  0  0  0  0  0  0
   -2.3431    0.8005    0.7524 C   0  0  0  0  0  0  0  0  0  0  0  0
    4.2659    0.3633    0.1205 H   0  0  0  0  0  0  0  0  0  0  0  0
    3.1965    0.5267    1.5141 H   0  0  0  0  0  0  0  0  0  0  0  0
    3.3627   -1.0331    0.7088 H   0  0  0  0  0  0  0  0  0  0  0  0
    2.3188   -0.0813   -1.3501 H   0  0  0  0  0  0  0  0  0  0  0  0
    2.1477    1.4771   -0.5413 H   0  0  0  0  0  0  0  0  0  0  0  0
    0.6766    0.4240    1.1700 H   0  0  0  0  0  0  0  0  0  0  0  0
    0.8326   -1.1306    0.3501 H   0  0  0  0  0  0  0  0  0  0  0  0
   -0.3746    1.3934   -0.8754 H   0  0  0  0  0  0  0  0  0  0  0  0
   -0.1880   -0.1783   -1.6969 H   0  0  0  0  0  0  0  0  0  0  0  0
   -1.6394    1.2750    1.4302 H   0  0  0  0  0  0  0  0  0  0  0  0
   -2.7767    1.5755    0.1231 H   0  0  0  0  0  0  0  0  0  0  0  0
   -3.1357    0.3090    1.3094 H   0  0  0  0  0  0  0  0  0  0  0  0
  1  2  1  0  0  0  0
  2  3  1  0  0  0  0
  3  4  1  0  0  0  0
  4  5  1  0  0  0  0
  5  6  2  0  0  0  0
  5  7  1  0  0  0  0
  1  8  1  0  0  0  0
  1  9  1  0  0  0  0
  1 10  1  0  0  0  0
  2 11  1  0  0  0  0
  2 12  1  0  0  0  0
  3 13  1  0  0  0  0
  3 14  1  0  0  0  0
  4 15  1  0  0  0  0
  4 16  1  0  0  0  0
  7 17  1  0  0  0  0
  7 18  1  0  0  0  0
  7 19  1  0  0  0  0
M  END
