 xtb: 6.7.1 (edcfbbe)
          04112516093D

 19 18  0     0  0            999 V2000
    2.9940   -0.4349   -0.1017 C   0  0  0  0  0  0  0  0  0  0  0  0
    2.1849    0.8442    0.0816 C   0  0  0  0  0  0  0  0  0  0  0  0
    0.7435    0.5940    0.5298 C   0  0  0  0  0  0  0  0  0  0  0  0
   -0.1001   -0.0791   -0.5586 C   0  0  0  0  0  0  0  0  0  0  0  0
   -1.5264   -0.3220   -0.1339 C   0  0  0  0  0  0  0  0  0  0  0  0
   -2.0249   -1.4315   -0.1812 O   0  0  0  0  0  0  0  0  0  0  0  0
   -2.2938    0.8742    0.3461 C   0  0  0  0  0  0  0  0  0  0  0  0
    2.6011   -1.0375   -0.9162 H   0  0  0  0  0  0  0  0  0  0  0  0
    4.0293   -0.1942   -0.3304 H   0  0  0  0  0  0  0  0  0  0  0  0
    2.9740   -1.0313    0.8079 H   0  0  0  0  0  0  0  0  0  0  0  0
    2.1801    1.4078   -0.8533 H   0  0  0  0  0  0  0  0  0  0  0  0
    2.6740    1.4612    0.8384 H   0  0  0  0  0  0  0  0  0  0  0  0
    0.2941    1.5513    0.7944 H   0  0  0  0  0  0  0  0  0  0  0  0
    0.7485   -0.0376    1.4206 H   0  0  0  0  0  0  0  0  0  0  0  0
   -0.1203    0.5630   -1.4422 H   0  0  0  0  0  0  0  0  0  0  0  0
    0.3352   -1.0393   -0.8382 H   0  0  0  0  0  0  0  0  0  0  0  0
   -2.0297    1.0551    1.3865 H   0  0  0  0  0  0  0  0  0  0  0  0
   -2.0425    1.7572   -0.2322 H   0  0  0  0  0  0  0  0  0  0  0  0
   -3.3607    0.6738    0.2957 H   0  0  0  0  0  0  0  0  0  0  0  0
  1  2  1  0  0  0  0
  2  3  1  0  0  0  0
  3  4  1  0  0  0  0
  4  5  1  0  0  0  0
  5  6  2  0  0  0  0
  5  7  1  0  0  0  0
  1  8  1  0  0  0  0
  1  9  1  0  0  0  0
  1 10  1  0  0  0  0
  2 11  1  0  0  0  0
  2 12  1  0  0  0  0
  3 13  1  0  0  0  0
  3 14  1  0  0  0  0
  4 15  1  0  0  0  0
  4 16  1  0  0  0  0
  7 17  1  0  0  0  0
  7 18  1  0  0  0  0
  7 19  1  0  0  0  0
M  END
