 xtb: 6.7.1 (edcfbbe)
          04112516203D

 17 16  0     0  0            999 V2000
   -3.0204   -0.0012   -0.4419 C   0  0  0  0  0  0  0  0  0  0  0  0
   -2.1781    0.5282    0.7129 C   0  0  0  0  0  0  0  0  0  0  0  0
   -0.7683   -0.0612    0.7522 C   0  0  0  0  0  0  0  0  0  0  0  0
    0.0878    0.3773   -0.4467 C   0  0  0  0  0  0  0  0  0  0  0  0
    1.4716   -0.1834   -0.2826 C   0  0  0  0  0  0  0  0  0  0  0  0
    1.8462   -1.2485   -0.7279 O   0  0  0  0  0  0  0  0  0  0  0  0
    2.2546    0.5974    0.4447 O   0  0  0  0  0  0  0  0  0  0  0  0
   -2.6171    0.3155   -1.3998 H   0  0  0  0  0  0  0  0  0  0  0  0
   -3.0515   -1.0882   -0.4227 H   0  0  0  0  0  0  0  0  0  0  0  0
   -4.0383    0.3724   -0.3644 H   0  0  0  0  0  0  0  0  0  0  0  0
   -2.6733    0.2801    1.6537 H   0  0  0  0  0  0  0  0  0  0  0  0
   -2.1126    1.6157    0.6483 H   0  0  0  0  0  0  0  0  0  0  0  0
   -0.2732    0.2637    1.6697 H   0  0  0  0  0  0  0  0  0  0  0  0
   -0.8262   -1.1518    0.7665 H   0  0  0  0  0  0  0  0  0  0  0  0
    0.1455    1.4648   -0.4755 H   0  0  0  0  0  0  0  0  0  0  0  0
   -0.3365   -0.0079   -1.3721 H   0  0  0  0  0  0  0  0  0  0  0  0
    3.1440    0.2190    0.5860 H   0  0  0  0  0  0  0  0  0  0  0  0
  1  2  1  0  0  0  0
  2  3  1  0  0  0  0
  3  4  1  0  0  0  0
  4  5  1  0  0  0  0
  5  6  2  0  0  0  0
  5  7  1  0  0  0  0
  1  8  1  0  0  0  0
  1  9  1  0  0  0  0
  1 10  1  0  0  0  0
  2 11  1  0  0  0  0
  2 12  1  0  0  0  0
  3 13  1  0  0  0  0
  3 14  1  0  0  0  0
  4 15  1  0  0  0  0
  4 16  1  0  0  0  0
  7 17  1  0  0  0  0
M  END
