 xtb: 6.7.1 (edcfbbe)
          04112517193D

 23 23  0     0  0            999 V2000
   -3.8011   -0.4427   -0.2062 C   0  0  0  0  0  0  0  0  0  0  0  0
   -2.7419    0.4994   -0.2042 O   0  0  0  0  0  0  0  0  0  0  0  0
   -1.4644    0.0401   -0.0824 C   0  0  0  0  0  0  0  0  0  0  0  0
   -1.0969   -1.2791    0.0421 C   0  0  0  0  0  0  0  0  0  0  0  0
    0.2549   -1.6285    0.1607 C   0  0  0  0  0  0  0  0  0  0  0  0
    1.2125   -0.6156    0.1497 C   0  0  0  0  0  0  0  0  0  0  0  0
    0.8670    0.7362    0.0242 C   0  0  0  0  0  0  0  0  0  0  0  0
   -0.4906    1.0656   -0.0932 C   0  0  0  0  0  0  0  0  0  0  0  0
   -0.9011    2.3453   -0.2174 O   0  0  0  0  0  0  0  0  0  0  0  0
    1.9141    1.5966    0.0309 O   0  0  0  0  0  0  0  0  0  0  0  0
    1.7193    2.9992   -0.0908 C   0  0  0  0  0  0  0  0  0  0  0  0
    2.8970   -0.9700    0.2914 Cl  0  0  0  0  0  0  0  0  0  0  0  0
    0.6029   -3.0343    0.2903 C   0  0  0  0  0  0  0  0  0  0  0  0
   -0.2002   -3.9478    0.3044 O   0  0  0  0  0  0  0  0  0  0  0  0
   -4.7069    0.1490   -0.3125 H   0  0  0  0  0  0  0  0  0  0  0  0
   -3.8293   -1.0008    0.7316 H   0  0  0  0  0  0  0  0  0  0  0  0
   -3.7075   -1.1339   -1.0459 H   0  0  0  0  0  0  0  0  0  0  0  0
   -1.8139   -2.0831    0.0537 H   0  0  0  0  0  0  0  0  0  0  0  0
   -1.8735    2.3642   -0.2857 H   0  0  0  0  0  0  0  0  0  0  0  0
    2.7238    3.4152   -0.0534 H   0  0  0  0  0  0  0  0  0  0  0  0
    1.1240    3.3891    0.7347 H   0  0  0  0  0  0  0  0  0  0  0  0
    1.2470    3.2520   -1.0400 H   0  0  0  0  0  0  0  0  0  0  0  0
    1.6807   -3.2413    0.3794 H   0  0  0  0  0  0  0  0  0  0  0  0
  1  2  1  0  0  0  0
  2  3  1  0  0  0  0
  3  4  4  0  0  0  0
  4  5  4  0  0  0  0
  5  6  4  0  0  0  0
  6  7  4  0  0  0  0
  3  8  4  0  0  0  0
  7  8  4  0  0  0  0
  8  9  1  0  0  0  0
  7 10  1  0  0  0  0
 10 11  1  0  0  0  0
  6 12  1  0  0  0  0
  5 13  1  0  0  0  0
 13 14  2  0  0  0  0
  1 15  1  0  0  0  0
  1 16  1  0  0  0  0
  1 17  1  0  0  0  0
  4 18  1  0  0  0  0
  9 19  1  0  0  0  0
 11 20  1  0  0  0  0
 11 21  1  0  0  0  0
 11 22  1  0  0  0  0
 13 23  1  0  0  0  0
M  END
