 xtb: 6.7.1 (edcfbbe)
          04112516053D

 26 26  0     0  0            999 V2000
   -2.9582   -1.2992   -1.1945 C   0  0  0  0  0  0  0  0  0  0  0  0
   -3.3947   -0.1735   -0.2657 C   0  0  0  0  0  0  0  0  0  0  0  0
   -2.4823   -0.0477    0.9626 C   0  0  0  0  0  0  0  0  0  0  0  0
   -1.0863    0.3494    0.5745 C   0  0  0  0  0  0  0  0  0  0  0  0
   -0.7930    1.6647    0.2511 C   0  0  0  0  0  0  0  0  0  0  0  0
    0.4826    2.0303   -0.1427 C   0  0  0  0  0  0  0  0  0  0  0  0
    1.4880    1.0825   -0.2206 C   0  0  0  0  0  0  0  0  0  0  0  0
    1.2027   -0.2527    0.1054 C   0  0  0  0  0  0  0  0  0  0  0  0
   -0.0761   -0.6046    0.4982 C   0  0  0  0  0  0  0  0  0  0  0  0
    2.2718   -1.1161   -0.0033 O   0  0  0  0  0  0  0  0  0  0  0  0
    2.0663   -2.4788    0.3062 C   0  0  0  0  0  0  0  0  0  0  0  0
    2.7418    1.4546   -0.6094 O   0  0  0  0  0  0  0  0  0  0  0  0
   -3.6266   -1.3669   -2.0494 H   0  0  0  0  0  0  0  0  0  0  0  0
   -1.9494   -1.1193   -1.5596 H   0  0  0  0  0  0  0  0  0  0  0  0
   -2.9725   -2.2527   -0.6710 H   0  0  0  0  0  0  0  0  0  0  0  0
   -4.4161   -0.3585    0.0725 H   0  0  0  0  0  0  0  0  0  0  0  0
   -3.3867    0.7708   -0.8133 H   0  0  0  0  0  0  0  0  0  0  0  0
   -2.4642   -1.0015    1.4923 H   0  0  0  0  0  0  0  0  0  0  0  0
   -2.8991    0.7075    1.6318 H   0  0  0  0  0  0  0  0  0  0  0  0
   -1.5653    2.4163    0.3086 H   0  0  0  0  0  0  0  0  0  0  0  0
    0.7210    3.0514   -0.3941 H   0  0  0  0  0  0  0  0  0  0  0  0
   -0.3045   -1.6278    0.7511 H   0  0  0  0  0  0  0  0  0  0  0  0
    1.3215   -2.9254   -0.3575 H   0  0  0  0  0  0  0  0  0  0  0  0
    1.7583   -2.6039    1.3474 H   0  0  0  0  0  0  0  0  0  0  0  0
    3.0307   -2.9568    0.1492 H   0  0  0  0  0  0  0  0  0  0  0  0
    3.3149    0.6713   -0.6033 H   0  0  0  0  0  0  0  0  0  0  0  0
  1  2  1  0  0  0  0
  2  3  1  0  0  0  0
  3  4  1  0  0  0  0
  4  5  4  0  0  0  0
  5  6  4  0  0  0  0
  6  7  4  0  0  0  0
  7  8  4  0  0  0  0
  4  9  4  0  0  0  0
  8  9  4  0  0  0  0
  8 10  1  0  0  0  0
 10 11  1  0  0  0  0
  7 12  1  0  0  0  0
  1 13  1  0  0  0  0
  1 14  1  0  0  0  0
  1 15  1  0  0  0  0
  2 16  1  0  0  0  0
  2 17  1  0  0  0  0
  3 18  1  0  0  0  0
  3 19  1  0  0  0  0
  5 20  1  0  0  0  0
  6 21  1  0  0  0  0
  9 22  1  0  0  0  0
 11 23  1  0  0  0  0
 11 24  1  0  0  0  0
 11 25  1  0  0  0  0
 12 26  1  0  0  0  0
M  END
