 xtb: 6.7.1 (edcfbbe)
          04112516153D

 26 25  0     0  0            999 V2000
    0.6560   -0.5437   -1.4964 C   0  0  0  0  0  0  0  0  0  0  0  0
    1.5967   -0.5371   -0.3024 C   0  0  0  0  0  0  0  0  0  0  0  0
    2.6575   -1.6334   -0.4401 C   0  0  0  0  0  0  0  0  0  0  0  0
    0.9913   -0.6525    1.0553 C   0  0  0  0  0  0  0  0  0  0  0  0
   -0.1621   -0.8936    1.5020 N   0  0  0  0  0  0  0  0  0  0  0  0
   -1.2277   -1.1741    0.5991 O   0  0  0  0  0  0  0  0  0  0  0  0
   -2.0206   -0.1269    0.2408 C   0  0  0  0  0  0  0  0  0  0  0  0
   -1.7049    1.0405    0.3939 O   0  0  0  0  0  0  0  0  0  0  0  0
   -3.1385   -0.5788   -0.3236 N   0  0  0  0  0  0  0  0  0  0  0  0
   -4.1536    0.2932   -0.8719 C   0  0  0  0  0  0  0  0  0  0  0  0
    2.5418    1.0742   -0.2781 S   0  0  0  0  0  0  0  0  0  0  0  0
    1.3564    2.2588    0.4223 C   0  0  0  0  0  0  0  0  0  0  0  0
    1.2381   -0.4195   -2.4064 H   0  0  0  0  0  0  0  0  0  0  0  0
    0.1148   -1.4865   -1.5477 H   0  0  0  0  0  0  0  0  0  0  0  0
   -0.0619    0.2730   -1.4397 H   0  0  0  0  0  0  0  0  0  0  0  0
    3.3557   -1.5984    0.3917 H   0  0  0  0  0  0  0  0  0  0  0  0
    3.2112   -1.4828   -1.3628 H   0  0  0  0  0  0  0  0  0  0  0  0
    2.1778   -2.6090   -0.4650 H   0  0  0  0  0  0  0  0  0  0  0  0
    1.7006   -0.5144    1.8654 H   0  0  0  0  0  0  0  0  0  0  0  0
   -3.2738   -1.5772   -0.3761 H   0  0  0  0  0  0  0  0  0  0  0  0
   -4.2662    0.1135   -1.9403 H   0  0  0  0  0  0  0  0  0  0  0  0
   -3.8380    1.3214   -0.7073 H   0  0  0  0  0  0  0  0  0  0  0  0
   -5.1041    0.1213   -0.3694 H   0  0  0  0  0  0  0  0  0  0  0  0
    1.5048    2.3270    1.4960 H   0  0  0  0  0  0  0  0  0  0  0  0
    0.3389    1.9488    0.2064 H   0  0  0  0  0  0  0  0  0  0  0  0
    1.5596    3.2160   -0.0461 H   0  0  0  0  0  0  0  0  0  0  0  0
  1  2  1  0  0  0  0
  2  3  1  0  0  0  0
  2  4  1  0  0  0  0
  4  5  2  0  0  0  0
  5  6  1  0  0  0  0
  6  7  1  0  0  0  0
  7  8  2  0  0  0  0
  7  9  4  0  0  0  0
  9 10  1  0  0  0  0
  2 11  1  0  0  0  0
 11 12  1  0  0  0  0
  1 13  1  0  0  0  0
  1 14  1  0  0  0  0
  1 15  1  0  0  0  0
  3 16  1  0  0  0  0
  3 17  1  0  0  0  0
  3 18  1  0  0  0  0
  4 19  1  0  0  0  0
  9 20  1  0  0  0  0
 10 21  1  0  0  0  0
 10 22  1  0  0  0  0
 10 23  1  0  0  0  0
 12 24  1  0  0  0  0
 12 25  1  0  0  0  0
 12 26  1  0  0  0  0
M  END
