 xtb: 6.7.1 (edcfbbe)
          04112516093D

 19 18  0     0  0            999 V2000
    2.3328   -0.8030    0.1179 C   0  0  0  0  0  0  0  0  0  0  0  0
    1.6115    0.4239    0.6649 C   0  0  0  0  0  0  0  0  0  0  0  0
    0.8362    1.1913   -0.4070 C   0  0  0  0  0  0  0  0  0  0  0  0
   -0.2592    0.3557   -1.0868 C   0  0  0  0  0  0  0  0  0  0  0  0
   -1.2031   -0.2736   -0.0913 C   0  0  0  0  0  0  0  0  0  0  0  0
   -1.2326   -1.4759    0.0922 O   0  0  0  0  0  0  0  0  0  0  0  0
   -2.1063    0.6710    0.6445 C   0  0  0  0  0  0  0  0  0  0  0  0
    1.6188   -1.5640   -0.1876 H   0  0  0  0  0  0  0  0  0  0  0  0
    2.9495   -0.5356   -0.7373 H   0  0  0  0  0  0  0  0  0  0  0  0
    2.9738   -1.2344    0.8830 H   0  0  0  0  0  0  0  0  0  0  0  0
    2.3444    1.1015    1.1087 H   0  0  0  0  0  0  0  0  0  0  0  0
    0.9286    0.1079    1.4575 H   0  0  0  0  0  0  0  0  0  0  0  0
    1.5320    1.5267   -1.1782 H   0  0  0  0  0  0  0  0  0  0  0  0
    0.3893    2.0777    0.0451 H   0  0  0  0  0  0  0  0  0  0  0  0
   -0.8306    1.0045   -1.7513 H   0  0  0  0  0  0  0  0  0  0  0  0
    0.1971   -0.4392   -1.6775 H   0  0  0  0  0  0  0  0  0  0  0  0
   -1.5141    1.4124    1.1737 H   0  0  0  0  0  0  0  0  0  0  0  0
   -2.7376    1.1942   -0.0691 H   0  0  0  0  0  0  0  0  0  0  0  0
   -2.7265    0.1248    1.3498 H   0  0  0  0  0  0  0  0  0  0  0  0
  1  2  1  0  0  0  0
  2  3  1  0  0  0  0
  3  4  1  0  0  0  0
  4  5  1  0  0  0  0
  5  6  2  0  0  0  0
  5  7  1  0  0  0  0
  1  8  1  0  0  0  0
  1  9  1  0  0  0  0
  1 10  1  0  0  0  0
  2 11  1  0  0  0  0
  2 12  1  0  0  0  0
  3 13  1  0  0  0  0
  3 14  1  0  0  0  0
  4 15  1  0  0  0  0
  4 16  1  0  0  0  0
  7 17  1  0  0  0  0
  7 18  1  0  0  0  0
  7 19  1  0  0  0  0
M  END
