 xtb: 6.7.1 (edcfbbe)
          04112516203D

 17 16  0     0  0            999 V2000
   -2.6061   -1.0551    0.6346 C   0  0  0  0  0  0  0  0  0  0  0  0
   -2.8322    0.3512    0.0860 C   0  0  0  0  0  0  0  0  0  0  0  0
   -1.6842    0.8834   -0.7819 C   0  0  0  0  0  0  0  0  0  0  0  0
   -0.6045    1.6692   -0.0350 C   0  0  0  0  0  0  0  0  0  0  0  0
    0.2377    0.8669    0.9369 C   0  0  0  0  0  0  0  0  0  0  0  0
    1.2071   -0.6035    0.0455 Br  0  0  0  0  0  0  0  0  0  0  0  0
   -2.3713   -1.7443   -0.1737 H   0  0  0  0  0  0  0  0  0  0  0  0
   -3.5059   -1.4086    1.1334 H   0  0  0  0  0  0  0  0  0  0  0  0
   -1.7931   -1.0931    1.3539 H   0  0  0  0  0  0  0  0  0  0  0  0
   -3.7351    0.3231   -0.5275 H   0  0  0  0  0  0  0  0  0  0  0  0
   -3.0211    1.0430    0.9096 H   0  0  0  0  0  0  0  0  0  0  0  0
   -1.2217    0.0530   -1.3198 H   0  0  0  0  0  0  0  0  0  0  0  0
   -2.1019    1.5595   -1.5306 H   0  0  0  0  0  0  0  0  0  0  0  0
    0.0564    2.1316   -0.7725 H   0  0  0  0  0  0  0  0  0  0  0  0
   -1.0738    2.4708    0.5414 H   0  0  0  0  0  0  0  0  0  0  0  0
   -0.3580    0.3963    1.7145 H   0  0  0  0  0  0  0  0  0  0  0  0
    1.0128    1.4836    1.3891 H   0  0  0  0  0  0  0  0  0  0  0  0
  1  2  1  0  0  0  0
  2  3  1  0  0  0  0
  3  4  1  0  0  0  0
  4  5  1  0  0  0  0
  5  6  1  0  0  0  0
  1  7  1  0  0  0  0
  1  8  1  0  0  0  0
  1  9  1  0  0  0  0
  2 10  1  0  0  0  0
  2 11  1  0  0  0  0
  3 12  1  0  0  0  0
  3 13  1  0  0  0  0
  4 14  1  0  0  0  0
  4 15  1  0  0  0  0
  5 16  1  0  0  0  0
  5 17  1  0  0  0  0
M  END
