 xtb: 6.7.1 (edcfbbe)
          04112516343D

 33 34  0     0  0            999 V2000
   -4.8099    0.9689   -0.7238 C   0  0  0  0  0  0  0  0  0  0  0  0
   -3.6613    0.1969   -0.1458 C   0  0  0  0  0  0  0  0  0  0  0  0
   -3.9114   -0.9378    0.6156 C   0  0  0  0  0  0  0  0  0  0  0  0
   -2.8749   -1.6595    1.1792 C   0  0  0  0  0  0  0  0  0  0  0  0
   -1.5697   -1.2499    0.9927 C   0  0  0  0  0  0  0  0  0  0  0  0
   -1.2990   -0.1266    0.2163 C   0  0  0  0  0  0  0  0  0  0  0  0
   -2.3436    0.6035   -0.3647 C   0  0  0  0  0  0  0  0  0  0  0  0
   -2.0319    1.8095   -1.2016 C   0  0  0  0  0  0  0  0  0  0  0  0
    0.0147    0.3374    0.0613 N   0  0  0  0  0  0  0  0  0  0  0  0
    1.1321   -0.4057   -0.1332 C   0  0  0  0  0  0  0  0  0  0  0  0
    1.0297   -1.7447   -0.5547 C   0  0  0  0  0  0  0  0  0  0  0  0
    2.1397   -2.5249   -0.7595 C   0  0  0  0  0  0  0  0  0  0  0  0
    3.4178   -2.0063   -0.5558 C   0  0  0  0  0  0  0  0  0  0  0  0
    3.5480   -0.6940   -0.1782 C   0  0  0  0  0  0  0  0  0  0  0  0
    2.4335    0.1346    0.0282 C   0  0  0  0  0  0  0  0  0  0  0  0
    2.7433    1.5110    0.4035 C   0  0  0  0  0  0  0  0  0  0  0  0
    3.8729    1.9071    0.6596 O   0  0  0  0  0  0  0  0  0  0  0  0
    1.7150    2.3723    0.4497 O   0  0  0  0  0  0  0  0  0  0  0  0
   -4.8061    0.9075   -1.8115 H   0  0  0  0  0  0  0  0  0  0  0  0
   -5.7538    0.5683   -0.3643 H   0  0  0  0  0  0  0  0  0  0  0  0
   -4.7477    2.0184   -0.4439 H   0  0  0  0  0  0  0  0  0  0  0  0
   -4.9313   -1.2549    0.7758 H   0  0  0  0  0  0  0  0  0  0  0  0
   -3.0844   -2.5318    1.7795 H   0  0  0  0  0  0  0  0  0  0  0  0
   -0.7563   -1.7809    1.4632 H   0  0  0  0  0  0  0  0  0  0  0  0
   -2.7786    1.9443   -1.9779 H   0  0  0  0  0  0  0  0  0  0  0  0
   -2.0222    2.7081   -0.5844 H   0  0  0  0  0  0  0  0  0  0  0  0
   -1.0591    1.7074   -1.6762 H   0  0  0  0  0  0  0  0  0  0  0  0
    0.1463    1.3316    0.1807 H   0  0  0  0  0  0  0  0  0  0  0  0
    0.0471   -2.1484   -0.7410 H   0  0  0  0  0  0  0  0  0  0  0  0
    2.0204   -3.5457   -1.0892 H   0  0  0  0  0  0  0  0  0  0  0  0
    4.2898   -2.6213   -0.7082 H   0  0  0  0  0  0  0  0  0  0  0  0
    4.5223   -0.2503   -0.0344 H   0  0  0  0  0  0  0  0  0  0  0  0
    2.0197    3.2644    0.7031 H   0  0  0  0  0  0  0  0  0  0  0  0
  1  2  1  0  0  0  0
  2  3  4  0  0  0  0
  3  4  4  0  0  0  0
  4  5  4  0  0  0  0
  5  6  4  0  0  0  0
  2  7  4  0  0  0  0
  6  7  4  0  0  0  0
  7  8  1  0  0  0  0
  6  9  1  0  0  0  0
  9 10  4  0  0  0  0
 10 11  4  0  0  0  0
 11 12  2  0  0  0  0
 12 13  4  0  0  0  0
 13 14  4  0  0  0  0
 10 15  4  0  0  0  0
 14 15  4  0  0  0  0
 15 16  1  0  0  0  0
 16 17  2  0  0  0  0
 16 18  1  0  0  0  0
  1 19  1  0  0  0  0
  1 20  1  0  0  0  0
  1 21  1  0  0  0  0
  3 22  1  0  0  0  0
  4 23  1  0  0  0  0
  5 24  1  0  0  0  0
  8 25  1  0  0  0  0
  8 26  1  0  0  0  0
  8 27  1  0  0  0  0
  9 28  1  0  0  0  0
 11 29  1  0  0  0  0
 12 30  1  0  0  0  0
 13 31  1  0  0  0  0
 14 32  1  0  0  0  0
 18 33  1  0  0  0  0
M  END
