 xtb: 6.7.1 (edcfbbe)
          04112514233D

 23 22  0     0  0            999 V2000
    3.0056   -0.7962    0.2376 C   0  0  0  0  0  0  0  0  0  0  0  0
    2.1237    0.4451    0.1148 C   0  0  0  0  0  0  0  0  0  0  0  0
    1.6352    0.6114   -1.3224 C   0  0  0  0  0  0  0  0  0  0  0  0
    0.9665    0.4315    1.1253 C   0  0  0  0  0  0  0  0  0  0  0  0
   -0.0090   -0.7391    1.0136 C   0  0  0  0  0  0  0  0  0  0  0  0
   -0.8052   -0.6913   -0.1778 O   0  0  0  0  0  0  0  0  0  0  0  0
   -1.8909    0.0715   -0.1836 C   0  0  0  0  0  0  0  0  0  0  0  0
   -2.2593    0.7236    0.7726 O   0  0  0  0  0  0  0  0  0  0  0  0
   -2.6067   -0.0012   -1.4996 C   0  0  0  0  0  0  0  0  0  0  0  0
    3.9014   -0.6749   -0.3663 H   0  0  0  0  0  0  0  0  0  0  0  0
    2.4821   -1.6809   -0.1147 H   0  0  0  0  0  0  0  0  0  0  0  0
    3.3061   -0.9539    1.2703 H   0  0  0  0  0  0  0  0  0  0  0  0
    2.7345    1.3202    0.3671 H   0  0  0  0  0  0  0  0  0  0  0  0
    1.0710   -0.2620   -1.6381 H   0  0  0  0  0  0  0  0  0  0  0  0
    2.4819    0.7360   -1.9934 H   0  0  0  0  0  0  0  0  0  0  0  0
    0.9957    1.4876   -1.4109 H   0  0  0  0  0  0  0  0  0  0  0  0
    0.3948    1.3584    1.0314 H   0  0  0  0  0  0  0  0  0  0  0  0
    1.3831    0.4013    2.1335 H   0  0  0  0  0  0  0  0  0  0  0  0
    0.5119   -1.6944    0.9644 H   0  0  0  0  0  0  0  0  0  0  0  0
   -0.6832   -0.7248    1.8762 H   0  0  0  0  0  0  0  0  0  0  0  0
   -3.2232    0.8822   -1.6294 H   0  0  0  0  0  0  0  0  0  0  0  0
   -3.2469   -0.8808   -1.4943 H   0  0  0  0  0  0  0  0  0  0  0  0
   -1.8881   -0.1008   -2.3066 H   0  0  0  0  0  0  0  0  0  0  0  0
  1  2  1  0  0  0  0
  2  3  1  0  0  0  0
  2  4  1  0  0  0  0
  4  5  1  0  0  0  0
  5  6  1  0  0  0  0
  6  7  1  0  0  0  0
  7  8  2  0  0  0  0
  7  9  1  0  0  0  0
  1 10  1  0  0  0  0
  1 11  1  0  0  0  0
  1 12  1  0  0  0  0
  2 13  1  0  0  0  0
  3 14  1  0  0  0  0
  3 15  1  0  0  0  0
  3 16  1  0  0  0  0
  4 17  1  0  0  0  0
  4 18  1  0  0  0  0
  5 19  1  0  0  0  0
  5 20  1  0  0  0  0
  9 21  1  0  0  0  0
  9 22  1  0  0  0  0
  9 23  1  0  0  0  0
M  END
