 xtb: 6.7.1 (edcfbbe)
          04112516093D

 19 18  0     0  0            999 V2000
    2.8996    0.4551   -0.7445 C   0  0  0  0  0  0  0  0  0  0  0  0
    2.2917    0.0692    0.5997 C   0  0  0  0  0  0  0  0  0  0  0  0
    0.8921   -0.5316    0.4761 C   0  0  0  0  0  0  0  0  0  0  0  0
   -0.1467    0.4705   -0.0216 C   0  0  0  0  0  0  0  0  0  0  0  0
   -1.5408   -0.1011   -0.0570 C   0  0  0  0  0  0  0  0  0  0  0  0
   -1.7735   -1.2832    0.1058 O   0  0  0  0  0  0  0  0  0  0  0  0
   -2.6297    0.9057   -0.3000 C   0  0  0  0  0  0  0  0  0  0  0  0
    3.9291    0.7785   -0.6114 H   0  0  0  0  0  0  0  0  0  0  0  0
    2.8930   -0.3962   -1.4216 H   0  0  0  0  0  0  0  0  0  0  0  0
    2.3482    1.2694   -1.2065 H   0  0  0  0  0  0  0  0  0  0  0  0
    2.2523    0.9476    1.2474 H   0  0  0  0  0  0  0  0  0  0  0  0
    2.9390   -0.6666    1.0813 H   0  0  0  0  0  0  0  0  0  0  0  0
    0.5731   -0.9060    1.4519 H   0  0  0  0  0  0  0  0  0  0  0  0
    0.9153   -1.3873   -0.2021 H   0  0  0  0  0  0  0  0  0  0  0  0
   -0.1498    1.3637    0.6055 H   0  0  0  0  0  0  0  0  0  0  0  0
    0.0930    0.7862   -1.0392 H   0  0  0  0  0  0  0  0  0  0  0  0
   -2.8129    1.4407    0.6300 H   0  0  0  0  0  0  0  0  0  0  0  0
   -2.3287    1.6273   -1.0528 H   0  0  0  0  0  0  0  0  0  0  0  0
   -3.5466    0.4042   -0.5969 H   0  0  0  0  0  0  0  0  0  0  0  0
  1  2  1  0  0  0  0
  2  3  1  0  0  0  0
  3  4  1  0  0  0  0
  4  5  1  0  0  0  0
  5  6  2  0  0  0  0
  5  7  1  0  0  0  0
  1  8  1  0  0  0  0
  1  9  1  0  0  0  0
  1 10  1  0  0  0  0
  2 11  1  0  0  0  0
  2 12  1  0  0  0  0
  3 13  1  0  0  0  0
  3 14  1  0  0  0  0
  4 15  1  0  0  0  0
  4 16  1  0  0  0  0
  7 17  1  0  0  0  0
  7 18  1  0  0  0  0
  7 19  1  0  0  0  0
M  END
