 xtb: 6.7.1 (edcfbbe)
          04112516013D

 20 19  0     0  0            999 V2000
   -3.4807   -0.3298   -0.6284 C   0  0  0  0  0  0  0  0  0  0  0  0
   -2.7905    0.5975    0.3660 C   0  0  0  0  0  0  0  0  0  0  0  0
   -1.4571    0.0493    0.8744 C   0  0  0  0  0  0  0  0  0  0  0  0
   -0.3964   -0.0092   -0.2174 C   0  0  0  0  0  0  0  0  0  0  0  0
    0.8400   -0.4368    0.3732 O   0  0  0  0  0  0  0  0  0  0  0  0
    1.9813   -0.0169   -0.1573 C   0  0  0  0  0  0  0  0  0  0  0  0
    2.0400    0.7071   -1.1312 O   0  0  0  0  0  0  0  0  0  0  0  0
    3.1670   -0.5385    0.5970 C   0  0  0  0  0  0  0  0  0  0  0  0
   -4.4633    0.0597   -0.8818 H   0  0  0  0  0  0  0  0  0  0  0  0
   -2.9059   -0.4177   -1.5462 H   0  0  0  0  0  0  0  0  0  0  0  0
   -3.6048   -1.3214   -0.2003 H   0  0  0  0  0  0  0  0  0  0  0  0
   -2.6262    1.5718   -0.0982 H   0  0  0  0  0  0  0  0  0  0  0  0
   -3.4465    0.7448    1.2254 H   0  0  0  0  0  0  0  0  0  0  0  0
   -1.0838    0.6891    1.6760 H   0  0  0  0  0  0  0  0  0  0  0  0
   -1.5966   -0.9527    1.2818 H   0  0  0  0  0  0  0  0  0  0  0  0
   -0.6587   -0.7307   -0.9960 H   0  0  0  0  0  0  0  0  0  0  0  0
   -0.2431    0.9702   -0.6833 H   0  0  0  0  0  0  0  0  0  0  0  0
    2.8412   -1.2313    1.3648 H   0  0  0  0  0  0  0  0  0  0  0  0
    3.6928    0.3006    1.0459 H   0  0  0  0  0  0  0  0  0  0  0  0
    3.8465   -1.0235   -0.0985 H   0  0  0  0  0  0  0  0  0  0  0  0
  1  2  1  0  0  0  0
  2  3  1  0  0  0  0
  3  4  1  0  0  0  0
  4  5  1  0  0  0  0
  5  6  1  0  0  0  0
  6  7  2  0  0  0  0
  6  8  1  0  0  0  0
  1  9  1  0  0  0  0
  1 10  1  0  0  0  0
  1 11  1  0  0  0  0
  2 12  1  0  0  0  0
  2 13  1  0  0  0  0
  3 14  1  0  0  0  0
  3 15  1  0  0  0  0
  4 16  1  0  0  0  0
  4 17  1  0  0  0  0
  8 18  1  0  0  0  0
  8 19  1  0  0  0  0
  8 20  1  0  0  0  0
M  END
