 xtb: 6.7.1 (edcfbbe)
          04112514373D

 14 13  0     0  0            999 V2000
    0.3903    0.8076    0.6578 C   0  0  0  0  0  0  0  0  0  0  0  0
   -0.3902    0.8076   -0.6578 C   0  0  0  0  0  0  0  0  0  0  0  0
   -1.3885   -0.3295   -0.7810 C   0  0  0  0  0  0  0  0  0  0  0  0
   -2.6798   -0.2020    0.4700 Cl  0  0  0  0  0  0  0  0  0  0  0  0
    1.3885   -0.3295    0.7810 C   0  0  0  0  0  0  0  0  0  0  0  0
    2.6799   -0.2020   -0.4700 Cl  0  0  0  0  0  0  0  0  0  0  0  0
   -0.3096    0.7240    1.4913 H   0  0  0  0  0  0  0  0  0  0  0  0
    0.9196    1.7560    0.7524 H   0  0  0  0  0  0  0  0  0  0  0  0
    0.3096    0.7240   -1.4913 H   0  0  0  0  0  0  0  0  0  0  0  0
   -0.9196    1.7560   -0.7524 H   0  0  0  0  0  0  0  0  0  0  0  0
   -1.8995   -0.2991   -1.7412 H   0  0  0  0  0  0  0  0  0  0  0  0
   -0.9262   -1.3033   -0.6378 H   0  0  0  0  0  0  0  0  0  0  0  0
    1.8995   -0.2991    1.7412 H   0  0  0  0  0  0  0  0  0  0  0  0
    0.9262   -1.3033    0.6378 H   0  0  0  0  0  0  0  0  0  0  0  0
  1  2  1  0  0  0  0
  2  3  1  0  0  0  0
  3  4  1  0  0  0  0
  1  5  1  0  0  0  0
  5  6  1  0  0  0  0
  1  7  1  0  0  0  0
  1  8  1  0  0  0  0
  2  9  1  0  0  0  0
  2 10  1  0  0  0  0
  3 11  1  0  0  0  0
  3 12  1  0  0  0  0
  5 13  1  0  0  0  0
  5 14  1  0  0  0  0
M  END
