 xtb: 6.7.1 (edcfbbe)
          04112516053D

 26 26  0     0  0            999 V2000
   -4.7082   -0.5855    0.6098 C   0  0  0  0  0  0  0  0  0  0  0  0
   -3.2333   -0.2329    0.7564 C   0  0  0  0  0  0  0  0  0  0  0  0
   -2.5382   -0.1251   -0.6065 C   0  0  0  0  0  0  0  0  0  0  0  0
   -1.0877    0.2216   -0.4378 C   0  0  0  0  0  0  0  0  0  0  0  0
   -0.6664    1.5424   -0.3854 C   0  0  0  0  0  0  0  0  0  0  0  0
    0.6680    1.8382   -0.1877 C   0  0  0  0  0  0  0  0  0  0  0  0
    1.6245    0.8421   -0.0332 C   0  0  0  0  0  0  0  0  0  0  0  0
    1.2126   -0.4966   -0.0833 C   0  0  0  0  0  0  0  0  0  0  0  0
   -0.1373   -0.7734   -0.2831 C   0  0  0  0  0  0  0  0  0  0  0  0
    1.9977   -1.6128    0.0467 O   0  0  0  0  0  0  0  0  0  0  0  0
    3.3998   -1.5024    0.2067 C   0  0  0  0  0  0  0  0  0  0  0  0
    2.9414    1.1729    0.1631 O   0  0  0  0  0  0  0  0  0  0  0  0
   -5.2262    0.1757    0.0308 H   0  0  0  0  0  0  0  0  0  0  0  0
   -4.8225   -1.5398    0.1009 H   0  0  0  0  0  0  0  0  0  0  0  0
   -5.1813   -0.6572    1.5859 H   0  0  0  0  0  0  0  0  0  0  0  0
   -2.7286   -0.9962    1.3524 H   0  0  0  0  0  0  0  0  0  0  0  0
   -3.1324    0.7180    1.2838 H   0  0  0  0  0  0  0  0  0  0  0  0
   -3.0354    0.6442   -1.1999 H   0  0  0  0  0  0  0  0  0  0  0  0
   -2.6323   -1.0778   -1.1302 H   0  0  0  0  0  0  0  0  0  0  0  0
   -1.3790    2.3442   -0.5019 H   0  0  0  0  0  0  0  0  0  0  0  0
    0.9862    2.8705   -0.1508 H   0  0  0  0  0  0  0  0  0  0  0  0
   -0.4197   -1.8145   -0.3167 H   0  0  0  0  0  0  0  0  0  0  0  0
    3.6568   -0.9740    1.1264 H   0  0  0  0  0  0  0  0  0  0  0  0
    3.8595   -0.9959   -0.6438 H   0  0  0  0  0  0  0  0  0  0  0  0
    3.7547   -2.5300    0.2599 H   0  0  0  0  0  0  0  0  0  0  0  0
    3.0372    2.1370    0.1651 H   0  0  0  0  0  0  0  0  0  0  0  0
  1  2  1  0  0  0  0
  2  3  1  0  0  0  0
  3  4  1  0  0  0  0
  4  5  4  0  0  0  0
  5  6  4  0  0  0  0
  6  7  4  0  0  0  0
  7  8  4  0  0  0  0
  4  9  4  0  0  0  0
  8  9  4  0  0  0  0
  8 10  1  0  0  0  0
 10 11  1  0  0  0  0
  7 12  1  0  0  0  0
  1 13  1  0  0  0  0
  1 14  1  0  0  0  0
  1 15  1  0  0  0  0
  2 16  1  0  0  0  0
  2 17  1  0  0  0  0
  3 18  1  0  0  0  0
  3 19  1  0  0  0  0
  5 20  1  0  0  0  0
  6 21  1  0  0  0  0
  9 22  1  0  0  0  0
 11 23  1  0  0  0  0
 11 24  1  0  0  0  0
 11 25  1  0  0  0  0
 12 26  1  0  0  0  0
M  END
