 xtb: 6.7.1 (edcfbbe)
          04112517153D

 20 19  0     0  0            999 V2000
   -3.1247   -1.1239   -0.0017 C   0  0  0  0  0  0  0  0  0  0  0  0
   -1.9336   -0.2935    0.4612 C   0  0  0  0  0  0  0  0  0  0  0  0
   -1.3581    0.5470   -0.6769 C   0  0  0  0  0  0  0  0  0  0  0  0
   -0.1698    1.3994   -0.2166 C   0  0  0  0  0  0  0  0  0  0  0  0
    0.9778    0.5366    0.2382 C   0  0  0  0  0  0  0  0  0  0  0  0
    1.4546    0.5406    1.3545 O   0  0  0  0  0  0  0  0  0  0  0  0
    1.4257   -0.2471   -0.7361 O   0  0  0  0  0  0  0  0  0  0  0  0
    2.5094   -1.1267   -0.4307 C   0  0  0  0  0  0  0  0  0  0  0  0
   -3.5206   -1.7140    0.8207 H   0  0  0  0  0  0  0  0  0  0  0  0
   -3.9154   -0.4768   -0.3736 H   0  0  0  0  0  0  0  0  0  0  0  0
   -2.8297   -1.8002   -0.8005 H   0  0  0  0  0  0  0  0  0  0  0  0
   -2.2416    0.3648    1.2765 H   0  0  0  0  0  0  0  0  0  0  0  0
   -1.1565   -0.9546    0.8541 H   0  0  0  0  0  0  0  0  0  0  0  0
   -2.1337    1.2098   -1.0630 H   0  0  0  0  0  0  0  0  0  0  0  0
   -1.0333   -0.1076   -1.4872 H   0  0  0  0  0  0  0  0  0  0  0  0
   -0.4566    2.0456    0.6129 H   0  0  0  0  0  0  0  0  0  0  0  0
    0.1805    2.0104   -1.0493 H   0  0  0  0  0  0  0  0  0  0  0  0
    2.2327   -1.7909    0.3892 H   0  0  0  0  0  0  0  0  0  0  0  0
    3.3867   -0.5494   -0.1364 H   0  0  0  0  0  0  0  0  0  0  0  0
    2.6978   -1.6870   -1.3410 H   0  0  0  0  0  0  0  0  0  0  0  0
  1  2  1  0  0  0  0
  2  3  1  0  0  0  0
  3  4  1  0  0  0  0
  4  5  1  0  0  0  0
  5  6  2  0  0  0  0
  5  7  1  0  0  0  0
  7  8  1  0  0  0  0
  1  9  1  0  0  0  0
  1 10  1  0  0  0  0
  1 11  1  0  0  0  0
  2 12  1  0  0  0  0
  2 13  1  0  0  0  0
  3 14  1  0  0  0  0
  3 15  1  0  0  0  0
  4 16  1  0  0  0  0
  4 17  1  0  0  0  0
  8 18  1  0  0  0  0
  8 19  1  0  0  0  0
  8 20  1  0  0  0  0
M  END
