 xtb: 6.7.1 (edcfbbe)
          04112514233D

 23 22  0     0  0            999 V2000
    1.7667    1.0435   -1.1633 C   0  0  0  0  0  0  0  0  0  0  0  0
    2.2316   -0.1909   -0.3957 C   0  0  0  0  0  0  0  0  0  0  0  0
    3.6710   -0.0009    0.0810 C   0  0  0  0  0  0  0  0  0  0  0  0
    1.3252   -0.4872    0.8055 C   0  0  0  0  0  0  0  0  0  0  0  0
   -0.0773   -0.9511    0.4323 C   0  0  0  0  0  0  0  0  0  0  0  0
   -0.8848    0.1775    0.0664 O   0  0  0  0  0  0  0  0  0  0  0  0
   -2.2031    0.0404    0.0958 C   0  0  0  0  0  0  0  0  0  0  0  0
   -2.7585   -0.9929    0.4133 O   0  0  0  0  0  0  0  0  0  0  0  0
   -2.9028    1.3006   -0.3165 C   0  0  0  0  0  0  0  0  0  0  0  0
    1.7878    1.9179   -0.5170 H   0  0  0  0  0  0  0  0  0  0  0  0
    0.7527    0.9133   -1.5291 H   0  0  0  0  0  0  0  0  0  0  0  0
    2.4201    1.2273   -2.0129 H   0  0  0  0  0  0  0  0  0  0  0  0
    2.2011   -1.0548   -1.0694 H   0  0  0  0  0  0  0  0  0  0  0  0
    4.0290   -0.8904    0.5936 H   0  0  0  0  0  0  0  0  0  0  0  0
    3.7339    0.8410    0.7666 H   0  0  0  0  0  0  0  0  0  0  0  0
    4.3264    0.1952   -0.7637 H   0  0  0  0  0  0  0  0  0  0  0  0
    1.2415    0.4040    1.4293 H   0  0  0  0  0  0  0  0  0  0  0  0
    1.7801   -1.2790    1.4019 H   0  0  0  0  0  0  0  0  0  0  0  0
   -0.0549   -1.6472   -0.4129 H   0  0  0  0  0  0  0  0  0  0  0  0
   -0.5647   -1.4540    1.2745 H   0  0  0  0  0  0  0  0  0  0  0  0
   -3.2502    1.1822   -1.3406 H   0  0  0  0  0  0  0  0  0  0  0  0
   -2.2188    2.1402   -0.2607 H   0  0  0  0  0  0  0  0  0  0  0  0
   -3.7701    1.4569    0.3178 H   0  0  0  0  0  0  0  0  0  0  0  0
  1  2  1  0  0  0  0
  2  3  1  0  0  0  0
  2  4  1  0  0  0  0
  4  5  1  0  0  0  0
  5  6  1  0  0  0  0
  6  7  1  0  0  0  0
  7  8  2  0  0  0  0
  7  9  1  0  0  0  0
  1 10  1  0  0  0  0
  1 11  1  0  0  0  0
  1 12  1  0  0  0  0
  2 13  1  0  0  0  0
  3 14  1  0  0  0  0
  3 15  1  0  0  0  0
  3 16  1  0  0  0  0
  4 17  1  0  0  0  0
  4 18  1  0  0  0  0
  5 19  1  0  0  0  0
  5 20  1  0  0  0  0
  9 21  1  0  0  0  0
  9 22  1  0  0  0  0
  9 23  1  0  0  0  0
M  END
