 xtb: 6.7.1 (edcfbbe)
          04112516593D

 20 19  0     0  0            999 V2000
   -3.6462   -0.7261    0.0821 C   0  0  0  0  0  0  0  0  0  0  0  0
   -2.2303   -0.4037   -0.3796 C   0  0  0  0  0  0  0  0  0  0  0  0
   -1.6083    0.7139    0.4560 C   0  0  0  0  0  0  0  0  0  0  0  0
   -0.1865    1.0324    0.0195 C   0  0  0  0  0  0  0  0  0  0  0  0
    0.6468   -0.0966    0.3208 O   0  0  0  0  0  0  0  0  0  0  0  0
    1.9090   -0.0596   -0.0848 C   0  0  0  0  0  0  0  0  0  0  0  0
    2.3838    0.8833   -0.6863 O   0  0  0  0  0  0  0  0  0  0  0  0
    2.6489   -1.3117    0.2775 C   0  0  0  0  0  0  0  0  0  0  0  0
   -4.2821    0.1522    0.0005 H   0  0  0  0  0  0  0  0  0  0  0  0
   -4.0736   -1.5182   -0.5270 H   0  0  0  0  0  0  0  0  0  0  0  0
   -3.6437   -1.0526    1.1191 H   0  0  0  0  0  0  0  0  0  0  0  0
   -1.6063   -1.2954   -0.2997 H   0  0  0  0  0  0  0  0  0  0  0  0
   -2.2489   -0.1007   -1.4288 H   0  0  0  0  0  0  0  0  0  0  0  0
   -2.2037    1.6224    0.3622 H   0  0  0  0  0  0  0  0  0  0  0  0
   -1.5917    0.4185    1.5058 H   0  0  0  0  0  0  0  0  0  0  0  0
   -0.1281    1.2318   -1.0559 H   0  0  0  0  0  0  0  0  0  0  0  0
    0.2108    1.9044    0.5495 H   0  0  0  0  0  0  0  0  0  0  0  0
    2.1109   -1.8491    1.0506 H   0  0  0  0  0  0  0  0  0  0  0  0
    3.6540   -1.0581    0.6008 H   0  0  0  0  0  0  0  0  0  0  0  0
    2.7263   -1.9347   -0.6111 H   0  0  0  0  0  0  0  0  0  0  0  0
  1  2  1  0  0  0  0
  2  3  1  0  0  0  0
  3  4  1  0  0  0  0
  4  5  1  0  0  0  0
  5  6  1  0  0  0  0
  6  7  2  0  0  0  0
  6  8  1  0  0  0  0
  1  9  1  0  0  0  0
  1 10  1  0  0  0  0
  1 11  1  0  0  0  0
  2 12  1  0  0  0  0
  2 13  1  0  0  0  0
  3 14  1  0  0  0  0
  3 15  1  0  0  0  0
  4 16  1  0  0  0  0
  4 17  1  0  0  0  0
  8 18  1  0  0  0  0
  8 19  1  0  0  0  0
  8 20  1  0  0  0  0
M  END
