 xtb: 6.7.1 (edcfbbe)
          04112516133D

 13 12  0     0  0            999 V2000
    1.6850    0.2735   -1.0412 C   0  0  0  0  0  0  0  0  0  0  0  0
    1.6071   -0.1952    0.3721 C   0  0  0  0  0  0  0  0  0  0  0  0
    2.4686   -0.8370    0.9274 O   0  0  0  0  0  0  0  0  0  0  0  0
    0.3472    0.1904    1.1464 C   0  0  0  0  0  0  0  0  0  0  0  0
   -0.6386    0.8589    0.3817 O   0  0  0  0  0  0  0  0  0  0  0  0
   -1.4846    0.0858   -0.3659 N   0  0  0  0  0  0  0  0  0  0  0  0
   -1.3291   -1.0942   -0.3311 O   0  0  0  0  0  0  0  0  0  0  0  0
   -2.2887    0.7130   -0.9756 O   0  0  0  0  0  0  0  0  0  0  0  0
    1.0516   -0.3662   -1.6563 H   0  0  0  0  0  0  0  0  0  0  0  0
    1.3259    1.2962   -1.1256 H   0  0  0  0  0  0  0  0  0  0  0  0
    2.7059    0.1907   -1.4016 H   0  0  0  0  0  0  0  0  0  0  0  0
    0.6242    0.8996    1.9299 H   0  0  0  0  0  0  0  0  0  0  0  0
   -0.0647   -0.7097    1.6151 H   0  0  0  0  0  0  0  0  0  0  0  0
  1  2  1  0  0  0  0
  2  3  2  0  0  0  0
  2  4  1  0  0  0  0
  4  5  1  0  0  0  0
  5  6  1  0  0  0  0
  6  7  4  0  0  0  0
  6  8  4  0  0  0  0
  1  9  1  0  0  0  0
  1 10  1  0  0  0  0
  1 11  1  0  0  0  0
  4 12  1  0  0  0  0
  4 13  1  0  0  0  0
M  END
