 xtb: 6.7.1 (edcfbbe)
          04112516353D

 19 18  0     0  0            999 V2000
    3.0427   -0.4818   -0.3224 C   0  0  0  0  0  0  0  0  0  0  0  0
    1.6317    0.0635   -0.5054 C   0  0  0  0  0  0  0  0  0  0  0  0
    0.9695    0.3767    0.8350 C   0  0  0  0  0  0  0  0  0  0  0  0
   -0.4382    0.9427    0.6561 C   0  0  0  0  0  0  0  0  0  0  0  0
   -1.4398   -0.0851    0.1871 C   0  0  0  0  0  0  0  0  0  0  0  0
   -1.2754   -1.2809    0.3279 O   0  0  0  0  0  0  0  0  0  0  0  0
   -2.6695    0.4867   -0.4580 C   0  0  0  0  0  0  0  0  0  0  0  0
    3.0211   -1.3998    0.2605 H   0  0  0  0  0  0  0  0  0  0  0  0
    3.4972   -0.6976   -1.2861 H   0  0  0  0  0  0  0  0  0  0  0  0
    3.6656    0.2415    0.1990 H   0  0  0  0  0  0  0  0  0  0  0  0
    1.0250   -0.6721   -1.0390 H   0  0  0  0  0  0  0  0  0  0  0  0
    1.6703    0.9714   -1.1122 H   0  0  0  0  0  0  0  0  0  0  0  0
    1.5825    1.0957    1.3812 H   0  0  0  0  0  0  0  0  0  0  0  0
    0.9087   -0.5394    1.4264 H   0  0  0  0  0  0  0  0  0  0  0  0
   -0.8091    1.3091    1.6174 H   0  0  0  0  0  0  0  0  0  0  0  0
   -0.4315    1.7845   -0.0368 H   0  0  0  0  0  0  0  0  0  0  0  0
   -2.4054    0.8223   -1.4591 H   0  0  0  0  0  0  0  0  0  0  0  0
   -3.4441   -0.2713   -0.5355 H   0  0  0  0  0  0  0  0  0  0  0  0
   -3.0301    1.3444    0.1017 H   0  0  0  0  0  0  0  0  0  0  0  0
  1  2  1  0  0  0  0
  2  3  1  0  0  0  0
  3  4  1  0  0  0  0
  4  5  1  0  0  0  0
  5  6  2  0  0  0  0
  5  7  1  0  0  0  0
  1  8  1  0  0  0  0
  1  9  1  0  0  0  0
  1 10  1  0  0  0  0
  2 11  1  0  0  0  0
  2 12  1  0  0  0  0
  3 13  1  0  0  0  0
  3 14  1  0  0  0  0
  4 15  1  0  0  0  0
  4 16  1  0  0  0  0
  7 17  1  0  0  0  0
  7 18  1  0  0  0  0
  7 19  1  0  0  0  0
M  END
