 xtb: 6.7.1 (edcfbbe)
          04112514233D

 23 22  0     0  0            999 V2000
    1.3052    1.3995   -0.0682 C   0  0  0  0  0  0  0  0  0  0  0  0
    2.0164    0.0838   -0.3770 C   0  0  0  0  0  0  0  0  0  0  0  0
    3.4660    0.1461    0.1028 C   0  0  0  0  0  0  0  0  0  0  0  0
    1.3167   -1.1165    0.2723 C   0  0  0  0  0  0  0  0  0  0  0  0
   -0.1142   -1.3531   -0.2051 C   0  0  0  0  0  0  0  0  0  0  0  0
   -1.0335   -0.5734    0.5741 O   0  0  0  0  0  0  0  0  0  0  0  0
   -1.9460    0.1704   -0.0351 C   0  0  0  0  0  0  0  0  0  0  0  0
   -2.0713    0.2350   -1.2420 O   0  0  0  0  0  0  0  0  0  0  0  0
   -2.7886    0.9181    0.9551 C   0  0  0  0  0  0  0  0  0  0  0  0
    1.1828    1.5225    1.0058 H   0  0  0  0  0  0  0  0  0  0  0  0
    0.3248    1.4367   -0.5377 H   0  0  0  0  0  0  0  0  0  0  0  0
    1.8850    2.2378   -0.4476 H   0  0  0  0  0  0  0  0  0  0  0  0
    2.0144   -0.0636   -1.4632 H   0  0  0  0  0  0  0  0  0  0  0  0
    3.5010    0.3080    1.1775 H   0  0  0  0  0  0  0  0  0  0  0  0
    3.9922    0.9626   -0.3849 H   0  0  0  0  0  0  0  0  0  0  0  0
    3.9860   -0.7811   -0.1241 H   0  0  0  0  0  0  0  0  0  0  0  0
    1.2935   -0.9854    1.3555 H   0  0  0  0  0  0  0  0  0  0  0  0
    1.8935   -2.0150    0.0513 H   0  0  0  0  0  0  0  0  0  0  0  0
   -0.2386   -1.0964   -1.2617 H   0  0  0  0  0  0  0  0  0  0  0  0
   -0.3982   -2.3982   -0.0535 H   0  0  0  0  0  0  0  0  0  0  0  0
   -3.5544    1.4806    0.4317 H   0  0  0  0  0  0  0  0  0  0  0  0
   -2.1528    1.5909    1.5248 H   0  0  0  0  0  0  0  0  0  0  0  0
   -3.2396    0.2126    1.6470 H   0  0  0  0  0  0  0  0  0  0  0  0
  1  2  1  0  0  0  0
  2  3  1  0  0  0  0
  2  4  1  0  0  0  0
  4  5  1  0  0  0  0
  5  6  1  0  0  0  0
  6  7  1  0  0  0  0
  7  8  2  0  0  0  0
  7  9  1  0  0  0  0
  1 10  1  0  0  0  0
  1 11  1  0  0  0  0
  1 12  1  0  0  0  0
  2 13  1  0  0  0  0
  3 14  1  0  0  0  0
  3 15  1  0  0  0  0
  3 16  1  0  0  0  0
  4 17  1  0  0  0  0
  4 18  1  0  0  0  0
  5 19  1  0  0  0  0
  5 20  1  0  0  0  0
  9 21  1  0  0  0  0
  9 22  1  0  0  0  0
  9 23  1  0  0  0  0
M  END
