 xtb: 6.7.1 (edcfbbe)
          04112514133D

 23 22  0     0  0            999 V2000
    2.6065    0.7215    0.0865 C   0  0  0  0  0  0  0  0  0  0  0  0
    1.7021   -0.1877   -0.7375 C   0  0  0  0  0  0  0  0  0  0  0  0
    0.8049   -1.0880    0.1146 C   0  0  0  0  0  0  0  0  0  0  0  0
   -0.2030   -0.3900    1.0344 C   0  0  0  0  0  0  0  0  0  0  0  0
   -1.4785    0.2001    0.4068 C   0  0  0  0  0  0  0  0  0  0  0  0
   -1.2431    1.4854   -0.3853 C   0  0  0  0  0  0  0  0  0  0  0  0
   -2.2291   -0.8177   -0.4502 C   0  0  0  0  0  0  0  0  0  0  0  0
    3.1858    0.1379    0.7990 H   0  0  0  0  0  0  0  0  0  0  0  0
    3.2969    1.2537   -0.5638 H   0  0  0  0  0  0  0  0  0  0  0  0
    2.0267    1.4584    0.6359 H   0  0  0  0  0  0  0  0  0  0  0  0
    2.3299   -0.8364   -1.3548 H   0  0  0  0  0  0  0  0  0  0  0  0
    1.1018    0.4188   -1.4139 H   0  0  0  0  0  0  0  0  0  0  0  0
    0.2741   -1.7779   -0.5429 H   0  0  0  0  0  0  0  0  0  0  0  0
    1.4574   -1.6926    0.7513 H   0  0  0  0  0  0  0  0  0  0  0  0
   -0.5296   -1.1353    1.7657 H   0  0  0  0  0  0  0  0  0  0  0  0
    0.3039    0.3987    1.5925 H   0  0  0  0  0  0  0  0  0  0  0  0
   -2.1259    0.4607    1.2546 H   0  0  0  0  0  0  0  0  0  0  0  0
   -2.1933    1.9790   -0.5798 H   0  0  0  0  0  0  0  0  0  0  0  0
   -0.6101    2.1728    0.1706 H   0  0  0  0  0  0  0  0  0  0  0  0
   -0.7755    1.2779   -1.3435 H   0  0  0  0  0  0  0  0  0  0  0  0
   -2.3734   -1.7475    0.0953 H   0  0  0  0  0  0  0  0  0  0  0  0
   -1.6834   -1.0315   -1.3658 H   0  0  0  0  0  0  0  0  0  0  0  0
   -3.2057   -0.4256   -0.7253 H   0  0  0  0  0  0  0  0  0  0  0  0
  1  2  1  0  0  0  0
  2  3  1  0  0  0  0
  3  4  1  0  0  0  0
  4  5  1  0  0  0  0
  5  6  1  0  0  0  0
  5  7  1  0  0  0  0
  1  8  1  0  0  0  0
  1  9  1  0  0  0  0
  1 10  1  0  0  0  0
  2 11  1  0  0  0  0
  2 12  1  0  0  0  0
  3 13  1  0  0  0  0
  3 14  1  0  0  0  0
  4 15  1  0  0  0  0
  4 16  1  0  0  0  0
  5 17  1  0  0  0  0
  6 18  1  0  0  0  0
  6 19  1  0  0  0  0
  6 20  1  0  0  0  0
  7 21  1  0  0  0  0
  7 22  1  0  0  0  0
  7 23  1  0  0  0  0
M  END
