 xtb: 6.7.1 (edcfbbe)
          04112516113D

 17 16  0     0  0            999 V2000
   -2.9424   -0.3067    0.6856 C   0  0  0  0  0  0  0  0  0  0  0  0
   -2.2516    0.7195   -0.2056 C   0  0  0  0  0  0  0  0  0  0  0  0
   -0.7487    0.8260    0.0517 C   0  0  0  0  0  0  0  0  0  0  0  0
    0.0015   -0.4466   -0.3451 C   0  0  0  0  0  0  0  0  0  0  0  0
    1.4929   -0.3283   -0.1984 C   0  0  0  0  0  0  0  0  0  0  0  0
    2.2935   -0.8967   -0.9144 O   0  0  0  0  0  0  0  0  0  0  0  0
    1.8699    0.4433    0.8068 O   0  0  0  0  0  0  0  0  0  0  0  0
   -2.6039   -1.3142    0.4596 H   0  0  0  0  0  0  0  0  0  0  0  0
   -2.7387   -0.0987    1.7333 H   0  0  0  0  0  0  0  0  0  0  0  0
   -4.0181   -0.2718    0.5325 H   0  0  0  0  0  0  0  0  0  0  0  0
   -2.6982    1.6994   -0.0266 H   0  0  0  0  0  0  0  0  0  0  0  0
   -2.4220    0.4650   -1.2536 H   0  0  0  0  0  0  0  0  0  0  0  0
   -0.3493    1.6635   -0.5237 H   0  0  0  0  0  0  0  0  0  0  0  0
   -0.5717    1.0336    1.1077 H   0  0  0  0  0  0  0  0  0  0  0  0
   -0.2137   -0.7278   -1.3770 H   0  0  0  0  0  0  0  0  0  0  0  0
   -0.3057   -1.2745    0.2983 H   0  0  0  0  0  0  0  0  0  0  0  0
    2.8412    0.4945    0.8968 H   0  0  0  0  0  0  0  0  0  0  0  0
  1  2  1  0  0  0  0
  2  3  1  0  0  0  0
  3  4  1  0  0  0  0
  4  5  1  0  0  0  0
  5  6  2  0  0  0  0
  5  7  1  0  0  0  0
  1  8  1  0  0  0  0
  1  9  1  0  0  0  0
  1 10  1  0  0  0  0
  2 11  1  0  0  0  0
  2 12  1  0  0  0  0
  3 13  1  0  0  0  0
  3 14  1  0  0  0  0
  4 15  1  0  0  0  0
  4 16  1  0  0  0  0
  7 17  1  0  0  0  0
M  END
