 xtb: 6.7.1 (edcfbbe)
          04112516293D

 20 19  0     0  0            999 V2000
   -1.9820   -1.3277   -0.2033 C   0  0  0  0  0  0  0  0  0  0  0  0
   -2.1548   -0.0513    0.6138 C   0  0  0  0  0  0  0  0  0  0  0  0
   -1.6701    1.2059   -0.1163 C   0  0  0  0  0  0  0  0  0  0  0  0
   -0.1734    1.4712    0.0237 C   0  0  0  0  0  0  0  0  0  0  0  0
    0.6078    0.4908   -0.6736 O   0  0  0  0  0  0  0  0  0  0  0  0
    1.4307   -0.2931    0.0108 C   0  0  0  0  0  0  0  0  0  0  0  0
    1.5831   -0.2296    1.2142 O   0  0  0  0  0  0  0  0  0  0  0  0
    2.1445   -1.2588   -0.8886 C   0  0  0  0  0  0  0  0  0  0  0  0
   -2.5146   -1.2478   -1.1481 H   0  0  0  0  0  0  0  0  0  0  0  0
   -0.9341   -1.5194   -0.4166 H   0  0  0  0  0  0  0  0  0  0  0  0
   -2.3777   -2.1798    0.3444 H   0  0  0  0  0  0  0  0  0  0  0  0
   -3.2146    0.0681    0.8462 H   0  0  0  0  0  0  0  0  0  0  0  0
   -1.6180   -0.1491    1.5606 H   0  0  0  0  0  0  0  0  0  0  0  0
   -1.9192    1.1335   -1.1757 H   0  0  0  0  0  0  0  0  0  0  0  0
   -2.1762    2.0796    0.2956 H   0  0  0  0  0  0  0  0  0  0  0  0
    0.0817    2.4326   -0.4297 H   0  0  0  0  0  0  0  0  0  0  0  0
    0.1274    1.4695    1.0762 H   0  0  0  0  0  0  0  0  0  0  0  0
    1.8522   -1.0924   -1.9196 H   0  0  0  0  0  0  0  0  0  0  0  0
    1.8993   -2.2733   -0.5828 H   0  0  0  0  0  0  0  0  0  0  0  0
    3.2165   -1.1268   -0.7688 H   0  0  0  0  0  0  0  0  0  0  0  0
  1  2  1  0  0  0  0
  2  3  1  0  0  0  0
  3  4  1  0  0  0  0
  4  5  1  0  0  0  0
  5  6  1  0  0  0  0
  6  7  2  0  0  0  0
  6  8  1  0  0  0  0
  1  9  1  0  0  0  0
  1 10  1  0  0  0  0
  1 11  1  0  0  0  0
  2 12  1  0  0  0  0
  2 13  1  0  0  0  0
  3 14  1  0  0  0  0
  3 15  1  0  0  0  0
  4 16  1  0  0  0  0
  4 17  1  0  0  0  0
  8 18  1  0  0  0  0
  8 19  1  0  0  0  0
  8 20  1  0  0  0  0
M  END
