 xtb: 6.7.1 (edcfbbe)
          04112516203D

 17 16  0     0  0            999 V2000
   -2.9378   -0.6718    0.6908 C   0  0  0  0  0  0  0  0  0  0  0  0
   -2.2543   -0.2961   -0.6192 C   0  0  0  0  0  0  0  0  0  0  0  0
   -1.8558    1.1800   -0.6860 C   0  0  0  0  0  0  0  0  0  0  0  0
   -0.7942    1.6304    0.3217 C   0  0  0  0  0  0  0  0  0  0  0  0
    0.6274    1.2186   -0.0193 C   0  0  0  0  0  0  0  0  0  0  0  0
    1.0794   -0.6299    0.5175 Br  0  0  0  0  0  0  0  0  0  0  0  0
   -3.7788   -0.0096    0.8858 H   0  0  0  0  0  0  0  0  0  0  0  0
   -2.2469   -0.6120    1.5281 H   0  0  0  0  0  0  0  0  0  0  0  0
   -3.3078   -1.6927    0.6401 H   0  0  0  0  0  0  0  0  0  0  0  0
   -1.3839   -0.9346   -0.7695 H   0  0  0  0  0  0  0  0  0  0  0  0
   -2.9440   -0.4923   -1.4435 H   0  0  0  0  0  0  0  0  0  0  0  0
   -1.4980    1.4037   -1.6941 H   0  0  0  0  0  0  0  0  0  0  0  0
   -2.7525    1.7800   -0.5164 H   0  0  0  0  0  0  0  0  0  0  0  0
   -0.7955    2.7234    0.3431 H   0  0  0  0  0  0  0  0  0  0  0  0
   -1.0527    1.2855    1.3233 H   0  0  0  0  0  0  0  0  0  0  0  0
    1.3522    1.8316    0.5135 H   0  0  0  0  0  0  0  0  0  0  0  0
    0.8185    1.2649   -1.0900 H   0  0  0  0  0  0  0  0  0  0  0  0
  1  2  1  0  0  0  0
  2  3  1  0  0  0  0
  3  4  1  0  0  0  0
  4  5  1  0  0  0  0
  5  6  1  0  0  0  0
  1  7  1  0  0  0  0
  1  8  1  0  0  0  0
  1  9  1  0  0  0  0
  2 10  1  0  0  0  0
  2 11  1  0  0  0  0
  3 12  1  0  0  0  0
  3 13  1  0  0  0  0
  4 14  1  0  0  0  0
  4 15  1  0  0  0  0
  5 16  1  0  0  0  0
  5 17  1  0  0  0  0
M  END
