 xtb: 6.7.1 (edcfbbe)
          04112516593D

 20 19  0     0  0            999 V2000
   -3.6165   -0.7440   -0.0515 C   0  0  0  0  0  0  0  0  0  0  0  0
   -2.1915   -0.3746   -0.4448 C   0  0  0  0  0  0  0  0  0  0  0  0
   -1.6059    0.6799    0.4928 C   0  0  0  0  0  0  0  0  0  0  0  0
   -0.1753    1.0429    0.1251 C   0  0  0  0  0  0  0  0  0  0  0  0
    0.6612   -0.0980    0.3674 O   0  0  0  0  0  0  0  0  0  0  0  0
    1.9340   -0.0203    0.0029 C   0  0  0  0  0  0  0  0  0  0  0  0
    2.4156    0.9683   -0.5140 O   0  0  0  0  0  0  0  0  0  0  0  0
    2.6767   -1.2892    0.2939 C   0  0  0  0  0  0  0  0  0  0  0  0
   -4.0176   -1.4898   -0.7326 H   0  0  0  0  0  0  0  0  0  0  0  0
   -3.6403   -1.1504    0.9566 H   0  0  0  0  0  0  0  0  0  0  0  0
   -4.2592    0.1326   -0.0834 H   0  0  0  0  0  0  0  0  0  0  0  0
   -1.5603   -1.2645   -0.4158 H   0  0  0  0  0  0  0  0  0  0  0  0
   -2.1830    0.0088   -1.4675 H   0  0  0  0  0  0  0  0  0  0  0  0
   -2.2077    1.5881    0.4515 H   0  0  0  0  0  0  0  0  0  0  0  0
   -1.6169    0.3044    1.5168 H   0  0  0  0  0  0  0  0  0  0  0  0
   -0.0868    1.3224   -0.9302 H   0  0  0  0  0  0  0  0  0  0  0  0
    0.1962    1.8764    0.7304 H   0  0  0  0  0  0  0  0  0  0  0  0
    3.6781   -1.0523    0.6402 H   0  0  0  0  0  0  0  0  0  0  0  0
    2.7627   -1.8566   -0.6304 H   0  0  0  0  0  0  0  0  0  0  0  0
    2.1345   -1.8754    1.0278 H   0  0  0  0  0  0  0  0  0  0  0  0
  1  2  1  0  0  0  0
  2  3  1  0  0  0  0
  3  4  1  0  0  0  0
  4  5  1  0  0  0  0
  5  6  1  0  0  0  0
  6  7  2  0  0  0  0
  6  8  1  0  0  0  0
  1  9  1  0  0  0  0
  1 10  1  0  0  0  0
  1 11  1  0  0  0  0
  2 12  1  0  0  0  0
  2 13  1  0  0  0  0
  3 14  1  0  0  0  0
  3 15  1  0  0  0  0
  4 16  1  0  0  0  0
  4 17  1  0  0  0  0
  8 18  1  0  0  0  0
  8 19  1  0  0  0  0
  8 20  1  0  0  0  0
M  END
