 xtb: 6.7.1 (edcfbbe)
          04112516153D

 26 25  0     0  0            999 V2000
    3.1793   -0.6255   -1.2521 C   0  0  0  0  0  0  0  0  0  0  0  0
    1.9062   -0.5601   -0.4189 C   0  0  0  0  0  0  0  0  0  0  0  0
    1.7962   -1.7825    0.4934 C   0  0  0  0  0  0  0  0  0  0  0  0
    0.7030   -0.4044   -1.2876 C   0  0  0  0  0  0  0  0  0  0  0  0
   -0.5234   -0.3149   -0.9949 N   0  0  0  0  0  0  0  0  0  0  0  0
   -0.8629   -0.3790    0.3720 O   0  0  0  0  0  0  0  0  0  0  0  0
   -2.1982   -0.2281    0.6458 C   0  0  0  0  0  0  0  0  0  0  0  0
   -2.5290   -0.2972    1.8151 O   0  0  0  0  0  0  0  0  0  0  0  0
   -2.9920   -0.0206   -0.3966 N   0  0  0  0  0  0  0  0  0  0  0  0
   -4.4220    0.1484   -0.2780 C   0  0  0  0  0  0  0  0  0  0  0  0
    1.9691    0.9145    0.7305 S   0  0  0  0  0  0  0  0  0  0  0  0
    1.9316    2.3160   -0.4309 C   0  0  0  0  0  0  0  0  0  0  0  0
    3.1889   -1.5456   -1.8322 H   0  0  0  0  0  0  0  0  0  0  0  0
    3.2487    0.2164   -1.9357 H   0  0  0  0  0  0  0  0  0  0  0  0
    4.0467   -0.6162   -0.5973 H   0  0  0  0  0  0  0  0  0  0  0  0
    1.7258   -2.6866   -0.1073 H   0  0  0  0  0  0  0  0  0  0  0  0
    0.9187   -1.7111    1.1318 H   0  0  0  0  0  0  0  0  0  0  0  0
    2.6776   -1.8418    1.1266 H   0  0  0  0  0  0  0  0  0  0  0  0
    0.8711   -0.3271   -2.3551 H   0  0  0  0  0  0  0  0  0  0  0  0
   -2.5654   -0.0027   -1.3145 H   0  0  0  0  0  0  0  0  0  0  0  0
   -4.6821    0.0913    0.7770 H   0  0  0  0  0  0  0  0  0  0  0  0
   -4.9377   -0.6404   -0.8235 H   0  0  0  0  0  0  0  0  0  0  0  0
   -4.7159    1.1193   -0.6739 H   0  0  0  0  0  0  0  0  0  0  0  0
    1.9671    3.2025    0.1934 H   0  0  0  0  0  0  0  0  0  0  0  0
    1.0074    2.3000   -0.9998 H   0  0  0  0  0  0  0  0  0  0  0  0
    2.7994    2.2870   -1.0803 H   0  0  0  0  0  0  0  0  0  0  0  0
  1  2  1  0  0  0  0
  2  3  1  0  0  0  0
  2  4  1  0  0  0  0
  4  5  2  0  0  0  0
  5  6  1  0  0  0  0
  6  7  1  0  0  0  0
  7  8  2  0  0  0  0
  7  9  4  0  0  0  0
  9 10  1  0  0  0  0
  2 11  1  0  0  0  0
 11 12  1  0  0  0  0
  1 13  1  0  0  0  0
  1 14  1  0  0  0  0
  1 15  1  0  0  0  0
  3 16  1  0  0  0  0
  3 17  1  0  0  0  0
  3 18  1  0  0  0  0
  4 19  1  0  0  0  0
  9 20  1  0  0  0  0
 10 21  1  0  0  0  0
 10 22  1  0  0  0  0
 10 23  1  0  0  0  0
 12 24  1  0  0  0  0
 12 25  1  0  0  0  0
 12 26  1  0  0  0  0
M  END
