 xtb: 6.7.1 (edcfbbe)
          04112514233D

 23 22  0     0  0            999 V2000
    1.5505    0.5025   -1.5038 C   0  0  0  0  0  0  0  0  0  0  0  0
    2.1287   -0.2070   -0.2821 C   0  0  0  0  0  0  0  0  0  0  0  0
    3.3666    0.5356    0.2196 C   0  0  0  0  0  0  0  0  0  0  0  0
    1.1048   -0.3210    0.8534 C   0  0  0  0  0  0  0  0  0  0  0  0
   -0.0832   -1.2314    0.5463 C   0  0  0  0  0  0  0  0  0  0  0  0
   -1.0236   -0.6331   -0.3564 O   0  0  0  0  0  0  0  0  0  0  0  0
   -1.9576    0.1670    0.1441 C   0  0  0  0  0  0  0  0  0  0  0  0
   -2.0663    0.4127    1.3284 O   0  0  0  0  0  0  0  0  0  0  0  0
   -2.8626    0.6987   -0.9269 C   0  0  0  0  0  0  0  0  0  0  0  0
    2.3053    0.5852   -2.2823 H   0  0  0  0  0  0  0  0  0  0  0  0
    1.2211    1.5051   -1.2372 H   0  0  0  0  0  0  0  0  0  0  0  0
    0.7016   -0.0448   -1.9034 H   0  0  0  0  0  0  0  0  0  0  0  0
    2.4268   -1.2196   -0.5754 H   0  0  0  0  0  0  0  0  0  0  0  0
    4.1112    0.6077   -0.5691 H   0  0  0  0  0  0  0  0  0  0  0  0
    3.8110    0.0173    1.0657 H   0  0  0  0  0  0  0  0  0  0  0  0
    3.1014    1.5425    0.5343 H   0  0  0  0  0  0  0  0  0  0  0  0
    0.7260    0.6701    1.1143 H   0  0  0  0  0  0  0  0  0  0  0  0
    1.6014   -0.7283    1.7354 H   0  0  0  0  0  0  0  0  0  0  0  0
    0.2397   -2.1465    0.0484 H   0  0  0  0  0  0  0  0  0  0  0  0
   -0.6108   -1.4720    1.4748 H   0  0  0  0  0  0  0  0  0  0  0  0
   -2.4025    0.5721   -1.9007 H   0  0  0  0  0  0  0  0  0  0  0  0
   -3.0817    1.7438   -0.7294 H   0  0  0  0  0  0  0  0  0  0  0  0
   -3.7984    0.1450   -0.8926 H   0  0  0  0  0  0  0  0  0  0  0  0
  1  2  1  0  0  0  0
  2  3  1  0  0  0  0
  2  4  1  0  0  0  0
  4  5  1  0  0  0  0
  5  6  1  0  0  0  0
  6  7  1  0  0  0  0
  7  8  2  0  0  0  0
  7  9  1  0  0  0  0
  1 10  1  0  0  0  0
  1 11  1  0  0  0  0
  1 12  1  0  0  0  0
  2 13  1  0  0  0  0
  3 14  1  0  0  0  0
  3 15  1  0  0  0  0
  3 16  1  0  0  0  0
  4 17  1  0  0  0  0
  4 18  1  0  0  0  0
  5 19  1  0  0  0  0
  5 20  1  0  0  0  0
  9 21  1  0  0  0  0
  9 22  1  0  0  0  0
  9 23  1  0  0  0  0
M  END
