 xtb: 6.7.1 (edcfbbe)
          04112516333D

 17 16  0     0  0            999 V2000
   -3.7091    0.0579    0.3750 C   0  0  0  0  0  0  0  0  0  0  0  0
   -2.5485   -0.7530   -0.1914 C   0  0  0  0  0  0  0  0  0  0  0  0
   -1.4062    0.1154   -0.7185 C   0  0  0  0  0  0  0  0  0  0  0  0
   -0.6836    0.8853    0.3850 C   0  0  0  0  0  0  0  0  0  0  0  0
    0.4933    1.6846   -0.1363 C   0  0  0  0  0  0  0  0  0  0  0  0
    1.9446    0.5195   -0.8030 Br  0  0  0  0  0  0  0  0  0  0  0  0
   -4.0719    0.7694   -0.3634 H   0  0  0  0  0  0  0  0  0  0  0  0
   -3.4098    0.6042    1.2654 H   0  0  0  0  0  0  0  0  0  0  0  0
   -4.5294   -0.6024    0.6452 H   0  0  0  0  0  0  0  0  0  0  0  0
   -2.1640   -1.4259    0.5780 H   0  0  0  0  0  0  0  0  0  0  0  0
   -2.9171   -1.3697   -1.0136 H   0  0  0  0  0  0  0  0  0  0  0  0
   -0.6859   -0.5305   -1.2271 H   0  0  0  0  0  0  0  0  0  0  0  0
   -1.7990    0.8206   -1.4551 H   0  0  0  0  0  0  0  0  0  0  0  0
   -1.3682    1.5976    0.8498 H   0  0  0  0  0  0  0  0  0  0  0  0
   -0.3443    0.1891    1.1553 H   0  0  0  0  0  0  0  0  0  0  0  0
    0.9529    2.2885    0.6436 H   0  0  0  0  0  0  0  0  0  0  0  0
    0.2166    2.3106   -0.9828 H   0  0  0  0  0  0  0  0  0  0  0  0
  1  2  1  0  0  0  0
  2  3  1  0  0  0  0
  3  4  1  0  0  0  0
  4  5  1  0  0  0  0
  5  6  1  0  0  0  0
  1  7  1  0  0  0  0
  1  8  1  0  0  0  0
  1  9  1  0  0  0  0
  2 10  1  0  0  0  0
  2 11  1  0  0  0  0
  3 12  1  0  0  0  0
  3 13  1  0  0  0  0
  4 14  1  0  0  0  0
  4 15  1  0  0  0  0
  5 16  1  0  0  0  0
  5 17  1  0  0  0  0
M  END
