 xtb: 6.7.1 (edcfbbe)
          04112516353D

 13 12  0     0  0            999 V2000
    2.8440   -0.0234   -0.3880 C   0  0  0  0  0  0  0  0  0  0  0  0
    1.4776   -0.1088    0.1948 C   0  0  0  0  0  0  0  0  0  0  0  0
    1.0344   -1.0608    0.7968 O   0  0  0  0  0  0  0  0  0  0  0  0
    0.6084    1.1267   -0.0441 C   0  0  0  0  0  0  0  0  0  0  0  0
   -0.7036    0.9236    0.4586 O   0  0  0  0  0  0  0  0  0  0  0  0
   -1.4381   -0.0372   -0.1649 N   0  0  0  0  0  0  0  0  0  0  0  0
   -0.9937   -0.5081   -1.1659 O   0  0  0  0  0  0  0  0  0  0  0  0
   -2.4760   -0.2744    0.3664 O   0  0  0  0  0  0  0  0  0  0  0  0
    2.7662   -0.2345   -1.4536 H   0  0  0  0  0  0  0  0  0  0  0  0
    3.2590    0.9718   -0.2691 H   0  0  0  0  0  0  0  0  0  0  0  0
    3.4891   -0.7710    0.0635 H   0  0  0  0  0  0  0  0  0  0  0  0
    0.5849    1.3678   -1.1113 H   0  0  0  0  0  0  0  0  0  0  0  0
    0.9845    1.9761    0.5270 H   0  0  0  0  0  0  0  0  0  0  0  0
  1  2  1  0  0  0  0
  2  3  2  0  0  0  0
  2  4  1  0  0  0  0
  4  5  1  0  0  0  0
  5  6  1  0  0  0  0
  6  7  4  0  0  0  0
  6  8  4  0  0  0  0
  1  9  1  0  0  0  0
  1 10  1  0  0  0  0
  1 11  1  0  0  0  0
  4 12  1  0  0  0  0
  4 13  1  0  0  0  0
M  END
