 xtb: 6.7.1 (edcfbbe)
          04112516113D

 20 19  0     0  0            999 V2000
    2.3819   -1.3721    0.5503 C   0  0  0  0  0  0  0  0  0  0  0  0
    1.5542   -0.4303   -0.2638 C   0  0  0  0  0  0  0  0  0  0  0  0
    0.9584   -0.7175   -1.2807 O   0  0  0  0  0  0  0  0  0  0  0  0
    1.5382    0.7893    0.2726 O   0  0  0  0  0  0  0  0  0  0  0  0
    0.6997    1.7911   -0.3126 C   0  0  0  0  0  0  0  0  0  0  0  0
   -0.6974    1.7790    0.3081 C   0  0  0  0  0  0  0  0  0  0  0  0
   -1.5281    0.7706   -0.2784 O   0  0  0  0  0  0  0  0  0  0  0  0
   -1.5385   -0.4506    0.2523 C   0  0  0  0  0  0  0  0  0  0  0  0
   -0.8942   -0.7555    1.2344 O   0  0  0  0  0  0  0  0  0  0  0  0
   -2.4639   -1.3616   -0.4902 C   0  0  0  0  0  0  0  0  0  0  0  0
    1.7349   -1.7735    1.3299 H   0  0  0  0  0  0  0  0  0  0  0  0
    3.2016   -0.8382    1.0189 H   0  0  0  0  0  0  0  0  0  0  0  0
    2.7366   -2.1872   -0.0716 H   0  0  0  0  0  0  0  0  0  0  0  0
    1.1939    2.7375   -0.0965 H   0  0  0  0  0  0  0  0  0  0  0  0
    0.6288    1.6196   -1.3914 H   0  0  0  0  0  0  0  0  0  0  0  0
   -1.2051    2.7198    0.0983 H   0  0  0  0  0  0  0  0  0  0  0  0
   -0.6202    1.6030    1.3857 H   0  0  0  0  0  0  0  0  0  0  0  0
   -2.1131   -2.3849   -0.4023 H   0  0  0  0  0  0  0  0  0  0  0  0
   -2.5210   -1.0568   -1.5297 H   0  0  0  0  0  0  0  0  0  0  0  0
   -3.4524   -1.2882   -0.0414 H   0  0  0  0  0  0  0  0  0  0  0  0
  1  2  1  0  0  0  0
  2  3  2  0  0  0  0
  2  4  1  0  0  0  0
  4  5  1  0  0  0  0
  5  6  1  0  0  0  0
  6  7  1  0  0  0  0
  7  8  1  0  0  0  0
  8  9  2  0  0  0  0
  8 10  1  0  0  0  0
  1 11  1  0  0  0  0
  1 12  1  0  0  0  0
  1 13  1  0  0  0  0
  5 14  1  0  0  0  0
  5 15  1  0  0  0  0
  6 16  1  0  0  0  0
  6 17  1  0  0  0  0
 10 18  1  0  0  0  0
 10 19  1  0  0  0  0
 10 20  1  0  0  0  0
M  END
