 xtb: 6.7.1 (edcfbbe)
          04112516153D

 26 25  0     0  0            999 V2000
    0.3360    0.5477   -1.4125 C   0  0  0  0  0  0  0  0  0  0  0  0
    1.2240   -0.0734   -0.3429 C   0  0  0  0  0  0  0  0  0  0  0  0
    1.7373   -1.4355   -0.7855 C   0  0  0  0  0  0  0  0  0  0  0  0
    0.6868   -0.1376    1.0481 C   0  0  0  0  0  0  0  0  0  0  0  0
   -0.3949    0.1765    1.6181 N   0  0  0  0  0  0  0  0  0  0  0  0
   -1.5073    0.6073    0.8499 O   0  0  0  0  0  0  0  0  0  0  0  0
   -2.1887   -0.3628    0.1742 C   0  0  0  0  0  0  0  0  0  0  0  0
   -1.7755   -1.4985    0.0238 O   0  0  0  0  0  0  0  0  0  0  0  0
   -3.3338    0.1371   -0.2881 N   0  0  0  0  0  0  0  0  0  0  0  0
   -4.2745   -0.6350   -1.0690 C   0  0  0  0  0  0  0  0  0  0  0  0
    2.6128    1.1671   -0.1180 S   0  0  0  0  0  0  0  0  0  0  0  0
    3.9743    0.2159    0.6203 C   0  0  0  0  0  0  0  0  0  0  0  0
   -0.4873   -0.1198   -1.6562 H   0  0  0  0  0  0  0  0  0  0  0  0
   -0.0589    1.5063   -1.0814 H   0  0  0  0  0  0  0  0  0  0  0  0
    0.9259    0.7107   -2.3118 H   0  0  0  0  0  0  0  0  0  0  0  0
    0.8782   -2.0877   -0.9399 H   0  0  0  0  0  0  0  0  0  0  0  0
    2.3762   -1.8899   -0.0334 H   0  0  0  0  0  0  0  0  0  0  0  0
    2.2836   -1.3426   -1.7209 H   0  0  0  0  0  0  0  0  0  0  0  0
    1.4088   -0.4804    1.7826 H   0  0  0  0  0  0  0  0  0  0  0  0
   -3.5507    1.0984   -0.0724 H   0  0  0  0  0  0  0  0  0  0  0  0
   -3.8750   -1.6413   -1.1761 H   0  0  0  0  0  0  0  0  0  0  0  0
   -4.4016   -0.1861   -2.0534 H   0  0  0  0  0  0  0  0  0  0  0  0
   -5.2362   -0.6793   -0.5602 H   0  0  0  0  0  0  0  0  0  0  0  0
    4.3371   -0.5218   -0.0867 H   0  0  0  0  0  0  0  0  0  0  0  0
    3.6560   -0.2430    1.5505 H   0  0  0  0  0  0  0  0  0  0  0  0
    4.7469    0.9509    0.8203 H   0  0  0  0  0  0  0  0  0  0  0  0
  1  2  1  0  0  0  0
  2  3  1  0  0  0  0
  2  4  1  0  0  0  0
  4  5  2  0  0  0  0
  5  6  1  0  0  0  0
  6  7  1  0  0  0  0
  7  8  2  0  0  0  0
  7  9  4  0  0  0  0
  9 10  1  0  0  0  0
  2 11  1  0  0  0  0
 11 12  1  0  0  0  0
  1 13  1  0  0  0  0
  1 14  1  0  0  0  0
  1 15  1  0  0  0  0
  3 16  1  0  0  0  0
  3 17  1  0  0  0  0
  3 18  1  0  0  0  0
  4 19  1  0  0  0  0
  9 20  1  0  0  0  0
 10 21  1  0  0  0  0
 10 22  1  0  0  0  0
 10 23  1  0  0  0  0
 12 24  1  0  0  0  0
 12 25  1  0  0  0  0
 12 26  1  0  0  0  0
M  END
