 xtb: 6.7.1 (edcfbbe)
          04112516273D

 19 18  0     0  0            999 V2000
   -2.6584   -0.7608   -0.5768 C   0  0  0  0  0  0  0  0  0  0  0  0
   -2.2382    0.2132    0.5184 C   0  0  0  0  0  0  0  0  0  0  0  0
   -0.7242    0.2718    0.7249 C   0  0  0  0  0  0  0  0  0  0  0  0
    0.0224    0.8920   -0.4539 C   0  0  0  0  0  0  0  0  0  0  0  0
    1.5276    0.9959   -0.1800 C   0  0  0  0  0  0  0  0  0  0  0  0
    2.1387   -0.3112   -0.0478 C   0  0  0  0  0  0  0  0  0  0  0  0
    2.6266   -1.4000    0.0496 C   0  0  0  0  0  0  0  0  0  0  0  0
   -3.7426   -0.8317   -0.6221 H   0  0  0  0  0  0  0  0  0  0  0  0
   -2.2568   -1.7518   -0.3763 H   0  0  0  0  0  0  0  0  0  0  0  0
   -2.3002   -0.4350   -1.5496 H   0  0  0  0  0  0  0  0  0  0  0  0
   -2.6086    1.2124    0.2773 H   0  0  0  0  0  0  0  0  0  0  0  0
   -2.7036   -0.0933    1.4581 H   0  0  0  0  0  0  0  0  0  0  0  0
   -0.3418   -0.7369    0.8988 H   0  0  0  0  0  0  0  0  0  0  0  0
   -0.5169    0.8620    1.6216 H   0  0  0  0  0  0  0  0  0  0  0  0
   -0.3702    1.8932   -0.6456 H   0  0  0  0  0  0  0  0  0  0  0  0
   -0.1316    0.2885   -1.3496 H   0  0  0  0  0  0  0  0  0  0  0  0
    1.6986    1.5598    0.7412 H   0  0  0  0  0  0  0  0  0  0  0  0
    2.0160    1.5257   -1.0022 H   0  0  0  0  0  0  0  0  0  0  0  0
    3.0624   -2.3496    0.1392 H   0  0  0  0  0  0  0  0  0  0  0  0
  1  2  1  0  0  0  0
  2  3  1  0  0  0  0
  3  4  1  0  0  0  0
  4  5  1  0  0  0  0
  5  6  1  0  0  0  0
  6  7  3  0  0  0  0
  1  8  1  0  0  0  0
  1  9  1  0  0  0  0
  1 10  1  0  0  0  0
  2 11  1  0  0  0  0
  2 12  1  0  0  0  0
  3 13  1  0  0  0  0
  3 14  1  0  0  0  0
  4 15  1  0  0  0  0
  4 16  1  0  0  0  0
  5 17  1  0  0  0  0
  5 18  1  0  0  0  0
  7 19  1  0  0  0  0
M  END
