 xtb: 6.7.1 (edcfbbe)
          04112516293D

 20 19  0     0  0            999 V2000
   -2.9687   -0.6442   -0.7013 C   0  0  0  0  0  0  0  0  0  0  0  0
   -2.3472   -0.4119    0.6715 C   0  0  0  0  0  0  0  0  0  0  0  0
   -1.5937    0.9156    0.7761 C   0  0  0  0  0  0  0  0  0  0  0  0
   -0.3349    0.9645   -0.0779 C   0  0  0  0  0  0  0  0  0  0  0  0
    0.5899   -0.0201    0.4074 O   0  0  0  0  0  0  0  0  0  0  0  0
    1.7232   -0.1802   -0.2630 C   0  0  0  0  0  0  0  0  0  0  0  0
    2.0035    0.4661   -1.2528 O   0  0  0  0  0  0  0  0  0  0  0  0
    2.5863   -1.2437    0.3462 C   0  0  0  0  0  0  0  0  0  0  0  0
   -3.5636   -1.5540   -0.6935 H   0  0  0  0  0  0  0  0  0  0  0  0
   -3.6154    0.1870   -0.9730 H   0  0  0  0  0  0  0  0  0  0  0  0
   -2.2048   -0.7501   -1.4676 H   0  0  0  0  0  0  0  0  0  0  0  0
   -3.1394   -0.4129    1.4220 H   0  0  0  0  0  0  0  0  0  0  0  0
   -1.6618   -1.2273    0.9077 H   0  0  0  0  0  0  0  0  0  0  0  0
   -2.2416    1.7348    0.4633 H   0  0  0  0  0  0  0  0  0  0  0  0
   -1.3049    1.0800    1.8149 H   0  0  0  0  0  0  0  0  0  0  0  0
   -0.5434    0.7588   -1.1320 H   0  0  0  0  0  0  0  0  0  0  0  0
    0.1446    1.9473   -0.0169 H   0  0  0  0  0  0  0  0  0  0  0  0
    3.5543   -1.2515   -0.1435 H   0  0  0  0  0  0  0  0  0  0  0  0
    2.1005   -2.2079    0.2184 H   0  0  0  0  0  0  0  0  0  0  0  0
    2.6939   -1.0571    1.4106 H   0  0  0  0  0  0  0  0  0  0  0  0
  1  2  1  0  0  0  0
  2  3  1  0  0  0  0
  3  4  1  0  0  0  0
  4  5  1  0  0  0  0
  5  6  1  0  0  0  0
  6  7  2  0  0  0  0
  6  8  1  0  0  0  0
  1  9  1  0  0  0  0
  1 10  1  0  0  0  0
  1 11  1  0  0  0  0
  2 12  1  0  0  0  0
  2 13  1  0  0  0  0
  3 14  1  0  0  0  0
  3 15  1  0  0  0  0
  4 16  1  0  0  0  0
  4 17  1  0  0  0  0
  8 18  1  0  0  0  0
  8 19  1  0  0  0  0
  8 20  1  0  0  0  0
M  END
