 xtb: 6.7.1 (edcfbbe)
          04112516113D

 17 16  0     0  0            999 V2000
   -3.0206   -0.0071   -0.4385 C   0  0  0  0  0  0  0  0  0  0  0  0
   -2.1767    0.5304    0.7114 C   0  0  0  0  0  0  0  0  0  0  0  0
   -0.7658   -0.0564    0.7507 C   0  0  0  0  0  0  0  0  0  0  0  0
    0.0875    0.3795   -0.4510 C   0  0  0  0  0  0  0  0  0  0  0  0
    1.4727   -0.1788   -0.2900 C   0  0  0  0  0  0  0  0  0  0  0  0
    1.8599   -1.2244   -0.7690 O   0  0  0  0  0  0  0  0  0  0  0  0
    2.2420    0.5804    0.4741 O   0  0  0  0  0  0  0  0  0  0  0  0
   -2.6197    0.3041   -1.3991 H   0  0  0  0  0  0  0  0  0  0  0  0
   -3.0502   -1.0940   -0.4125 H   0  0  0  0  0  0  0  0  0  0  0  0
   -4.0389    0.3655   -0.3612 H   0  0  0  0  0  0  0  0  0  0  0  0
   -2.6695    0.2869    1.6547 H   0  0  0  0  0  0  0  0  0  0  0  0
   -2.1132    1.6176    0.6404 H   0  0  0  0  0  0  0  0  0  0  0  0
   -0.2694    0.2726    1.6660 H   0  0  0  0  0  0  0  0  0  0  0  0
   -0.8224   -1.1471    0.7690 H   0  0  0  0  0  0  0  0  0  0  0  0
    0.1441    1.4671   -0.4814 H   0  0  0  0  0  0  0  0  0  0  0  0
   -0.3378   -0.0068   -1.3754 H   0  0  0  0  0  0  0  0  0  0  0  0
    3.1321    0.2024    0.6121 H   0  0  0  0  0  0  0  0  0  0  0  0
  1  2  1  0  0  0  0
  2  3  1  0  0  0  0
  3  4  1  0  0  0  0
  4  5  1  0  0  0  0
  5  6  2  0  0  0  0
  5  7  1  0  0  0  0
  1  8  1  0  0  0  0
  1  9  1  0  0  0  0
  1 10  1  0  0  0  0
  2 11  1  0  0  0  0
  2 12  1  0  0  0  0
  3 13  1  0  0  0  0
  3 14  1  0  0  0  0
  4 15  1  0  0  0  0
  4 16  1  0  0  0  0
  7 17  1  0  0  0  0
M  END
