 xtb: 6.7.1 (edcfbbe)
          04112514083D

 16 15  0     0  0            999 V2000
   -1.7838   -1.2623   -0.0690 C   0  0  0  0  0  0  0  0  0  0  0  0
   -1.8268    0.1487    0.0192 O   0  0  0  0  0  0  0  0  0  0  0  0
   -0.6552    0.8046   -0.4223 C   0  0  0  0  0  0  0  0  0  0  0  0
    0.4877    0.7952    0.6188 C   0  0  0  0  0  0  0  0  0  0  0  0
    1.7564    0.5177    0.0610 O   0  0  0  0  0  0  0  0  0  0  0  0
    2.0057   -0.8519   -0.1891 C   0  0  0  0  0  0  0  0  0  0  0  0
   -0.9978   -1.6862    0.5627 H   0  0  0  0  0  0  0  0  0  0  0  0
   -1.6239   -1.5806   -1.1051 H   0  0  0  0  0  0  0  0  0  0  0  0
   -2.7535   -1.6114    0.2762 H   0  0  0  0  0  0  0  0  0  0  0  0
   -0.2966    0.3535   -1.3573 H   0  0  0  0  0  0  0  0  0  0  0  0
   -0.9663    1.8285   -0.6331 H   0  0  0  0  0  0  0  0  0  0  0  0
    0.2528    0.0689    1.4084 H   0  0  0  0  0  0  0  0  0  0  0  0
    0.5891    1.7794    1.0778 H   0  0  0  0  0  0  0  0  0  0  0  0
    3.0144   -0.9021   -0.5905 H   0  0  0  0  0  0  0  0  0  0  0  0
    1.3026   -1.2677   -0.9167 H   0  0  0  0  0  0  0  0  0  0  0  0
    1.9487   -1.4315    0.7390 H   0  0  0  0  0  0  0  0  0  0  0  0
  1  2  1  0  0  0  0
  2  3  1  0  0  0  0
  3  4  1  0  0  0  0
  4  5  1  0  0  0  0
  5  6  1  0  0  0  0
  1  7  1  0  0  0  0
  1  8  1  0  0  0  0
  1  9  1  0  0  0  0
  3 10  1  0  0  0  0
  3 11  1  0  0  0  0
  4 12  1  0  0  0  0
  4 13  1  0  0  0  0
  6 14  1  0  0  0  0
  6 15  1  0  0  0  0
  6 16  1  0  0  0  0
M  END
