 xtb: 6.7.1 (edcfbbe)
          04112514523D

 17 16  0     0  0            999 V2000
    3.6481   -0.4728    0.1691 C   0  0  0  0  0  0  0  0  0  0  0  0
    2.2679   -0.4049   -0.4720 C   0  0  0  0  0  0  0  0  0  0  0  0
    1.2768    0.3572    0.4194 C   0  0  0  0  0  0  0  0  0  0  0  0
   -0.0565    0.4611   -0.2188 C   0  0  0  0  0  0  0  0  0  0  0  0
   -1.2088    0.0676    0.3377 C   0  0  0  0  0  0  0  0  0  0  0  0
   -2.4733    0.1952   -0.3473 C   0  0  0  0  0  0  0  0  0  0  0  0
   -3.5557   -0.1401    0.0996 O   0  0  0  0  0  0  0  0  0  0  0  0
    3.5979   -0.9733    1.1331 H   0  0  0  0  0  0  0  0  0  0  0  0
    4.3336   -1.0255   -0.4681 H   0  0  0  0  0  0  0  0  0  0  0  0
    4.0497    0.5261    0.3212 H   0  0  0  0  0  0  0  0  0  0  0  0
    1.8917   -1.4159   -0.6391 H   0  0  0  0  0  0  0  0  0  0  0  0
    2.3393    0.0908   -1.4416 H   0  0  0  0  0  0  0  0  0  0  0  0
    1.6646    1.3683    0.5728 H   0  0  0  0  0  0  0  0  0  0  0  0
    1.1982   -0.1312    1.3911 H   0  0  0  0  0  0  0  0  0  0  0  0
   -0.0719    0.8812   -1.2172 H   0  0  0  0  0  0  0  0  0  0  0  0
   -1.2415   -0.3616    1.3292 H   0  0  0  0  0  0  0  0  0  0  0  0
   -2.4111    0.6370   -1.3595 H   0  0  0  0  0  0  0  0  0  0  0  0
  1  2  1  0  0  0  0
  2  3  1  0  0  0  0
  3  4  1  0  0  0  0
  4  5  2  0  0  0  0
  5  6  1  0  0  0  0
  6  7  2  0  0  0  0
  1  8  1  0  0  0  0
  1  9  1  0  0  0  0
  1 10  1  0  0  0  0
  2 11  1  0  0  0  0
  2 12  1  0  0  0  0
  3 13  1  0  0  0  0
  3 14  1  0  0  0  0
  4 15  1  0  0  0  0
  5 16  1  0  0  0  0
  6 17  1  0  0  0  0
M  END
