 xtb: 6.7.1 (edcfbbe)
          04112516213D

 19 18  0     0  0            999 V2000
    1.7883   -0.3362   -1.1477 C   0  0  0  0  0  0  0  0  0  0  0  0
    2.0914    0.3550    0.1759 C   0  0  0  0  0  0  0  0  0  0  0  0
    0.9955    0.1563    1.2231 C   0  0  0  0  0  0  0  0  0  0  0  0
   -0.3404    0.7799    0.8130 C   0  0  0  0  0  0  0  0  0  0  0  0
   -1.1991   -0.1292   -0.0337 C   0  0  0  0  0  0  0  0  0  0  0  0
   -1.1359   -1.3411    0.0277 O   0  0  0  0  0  0  0  0  0  0  0  0
   -2.1775    0.5807   -0.9265 C   0  0  0  0  0  0  0  0  0  0  0  0
    0.9193    0.1049   -1.6302 H   0  0  0  0  0  0  0  0  0  0  0  0
    2.6349   -0.2486   -1.8245 H   0  0  0  0  0  0  0  0  0  0  0  0
    1.5804   -1.3921   -0.9867 H   0  0  0  0  0  0  0  0  0  0  0  0
    2.2359    1.4240    0.0023 H   0  0  0  0  0  0  0  0  0  0  0  0
    3.0256   -0.0439    0.5768 H   0  0  0  0  0  0  0  0  0  0  0  0
    1.3284    0.6006    2.1623 H   0  0  0  0  0  0  0  0  0  0  0  0
    0.8408   -0.9123    1.3902 H   0  0  0  0  0  0  0  0  0  0  0  0
   -0.9338    0.9782    1.7102 H   0  0  0  0  0  0  0  0  0  0  0  0
   -0.1865    1.7304    0.3029 H   0  0  0  0  0  0  0  0  0  0  0  0
   -2.8734   -0.1290   -1.3654 H   0  0  0  0  0  0  0  0  0  0  0  0
   -2.7164    1.3356   -0.3606 H   0  0  0  0  0  0  0  0  0  0  0  0
   -1.6323    1.0840   -1.7222 H   0  0  0  0  0  0  0  0  0  0  0  0
  1  2  1  0  0  0  0
  2  3  1  0  0  0  0
  3  4  1  0  0  0  0
  4  5  1  0  0  0  0
  5  6  2  0  0  0  0
  5  7  1  0  0  0  0
  1  8  1  0  0  0  0
  1  9  1  0  0  0  0
  1 10  1  0  0  0  0
  2 11  1  0  0  0  0
  2 12  1  0  0  0  0
  3 13  1  0  0  0  0
  3 14  1  0  0  0  0
  4 15  1  0  0  0  0
  4 16  1  0  0  0  0
  7 17  1  0  0  0  0
  7 18  1  0  0  0  0
  7 19  1  0  0  0  0
M  END
