 xtb: 6.7.1 (edcfbbe)
          04112516213D

 19 18  0     0  0            999 V2000
    3.0868    0.3843   -0.6233 C   0  0  0  0  0  0  0  0  0  0  0  0
    1.7584    0.7213    0.0453 C   0  0  0  0  0  0  0  0  0  0  0  0
    0.9640   -0.5436    0.3650 C   0  0  0  0  0  0  0  0  0  0  0  0
   -0.3867   -0.2707    1.0567 C   0  0  0  0  0  0  0  0  0  0  0  0
   -1.5302   -0.2097    0.0736 C   0  0  0  0  0  0  0  0  0  0  0  0
   -2.3824   -1.0786    0.0435 O   0  0  0  0  0  0  0  0  0  0  0  0
   -1.5521    0.9531   -0.8720 C   0  0  0  0  0  0  0  0  0  0  0  0
    2.9202   -0.1421   -1.5606 H   0  0  0  0  0  0  0  0  0  0  0  0
    3.6483    1.2908   -0.8337 H   0  0  0  0  0  0  0  0  0  0  0  0
    3.6895   -0.2514    0.0214 H   0  0  0  0  0  0  0  0  0  0  0  0
    1.1858    1.3752   -0.6119 H   0  0  0  0  0  0  0  0  0  0  0  0
    1.9499    1.2647    0.9729 H   0  0  0  0  0  0  0  0  0  0  0  0
    1.5670   -1.1661    1.0281 H   0  0  0  0  0  0  0  0  0  0  0  0
    0.7953   -1.1181   -0.5488 H   0  0  0  0  0  0  0  0  0  0  0  0
   -0.6069   -1.0759    1.7595 H   0  0  0  0  0  0  0  0  0  0  0  0
   -0.3298    0.6688    1.6065 H   0  0  0  0  0  0  0  0  0  0  0  0
   -2.5150    1.0053   -1.3734 H   0  0  0  0  0  0  0  0  0  0  0  0
   -1.3478    1.8802   -0.3458 H   0  0  0  0  0  0  0  0  0  0  0  0
   -0.7778    0.8051   -1.6221 H   0  0  0  0  0  0  0  0  0  0  0  0
  1  2  1  0  0  0  0
  2  3  1  0  0  0  0
  3  4  1  0  0  0  0
  4  5  1  0  0  0  0
  5  6  2  0  0  0  0
  5  7  1  0  0  0  0
  1  8  1  0  0  0  0
  1  9  1  0  0  0  0
  1 10  1  0  0  0  0
  2 11  1  0  0  0  0
  2 12  1  0  0  0  0
  3 13  1  0  0  0  0
  3 14  1  0  0  0  0
  4 15  1  0  0  0  0
  4 16  1  0  0  0  0
  7 17  1  0  0  0  0
  7 18  1  0  0  0  0
  7 19  1  0  0  0  0
M  END
