 xtb: 6.7.1 (edcfbbe)
          04112516263D

 20 19  0     0  0            999 V2000
   -3.3275    0.1316    0.8339 C   0  0  0  0  0  0  0  0  0  0  0  0
   -2.6516   -0.6657   -0.2762 C   0  0  0  0  0  0  0  0  0  0  0  0
   -1.1333   -0.7535   -0.1154 C   0  0  0  0  0  0  0  0  0  0  0  0
   -0.4507    0.6009   -0.2946 C   0  0  0  0  0  0  0  0  0  0  0  0
    1.0526    0.5424   -0.2548 C   0  0  0  0  0  0  0  0  0  0  0  0
    1.7777    1.4234   -0.6745 O   0  0  0  0  0  0  0  0  0  0  0  0
    1.5183   -0.5672    0.3031 O   0  0  0  0  0  0  0  0  0  0  0  0
    2.9369   -0.7085    0.4066 C   0  0  0  0  0  0  0  0  0  0  0  0
   -3.0310    1.1766    0.8037 H   0  0  0  0  0  0  0  0  0  0  0  0
   -4.4080    0.0855    0.7235 H   0  0  0  0  0  0  0  0  0  0  0  0
   -3.0651   -0.2754    1.8076 H   0  0  0  0  0  0  0  0  0  0  0  0
   -3.0545   -1.6802   -0.2763 H   0  0  0  0  0  0  0  0  0  0  0  0
   -2.8876   -0.2160   -1.2426 H   0  0  0  0  0  0  0  0  0  0  0  0
   -0.7370   -1.4487   -0.8577 H   0  0  0  0  0  0  0  0  0  0  0  0
   -0.8930   -1.1520    0.8710 H   0  0  0  0  0  0  0  0  0  0  0  0
   -0.7520    1.2868    0.5007 H   0  0  0  0  0  0  0  0  0  0  0  0
   -0.7353    1.0627   -1.2422 H   0  0  0  0  0  0  0  0  0  0  0  0
    3.1013   -1.6852    0.8505 H   0  0  0  0  0  0  0  0  0  0  0  0
    3.3458    0.0829    1.0359 H   0  0  0  0  0  0  0  0  0  0  0  0
    3.3918   -0.6439   -0.5825 H   0  0  0  0  0  0  0  0  0  0  0  0
  1  2  1  0  0  0  0
  2  3  1  0  0  0  0
  3  4  1  0  0  0  0
  4  5  1  0  0  0  0
  5  6  2  0  0  0  0
  5  7  1  0  0  0  0
  7  8  1  0  0  0  0
  1  9  1  0  0  0  0
  1 10  1  0  0  0  0
  1 11  1  0  0  0  0
  2 12  1  0  0  0  0
  2 13  1  0  0  0  0
  3 14  1  0  0  0  0
  3 15  1  0  0  0  0
  4 16  1  0  0  0  0
  4 17  1  0  0  0  0
  8 18  1  0  0  0  0
  8 19  1  0  0  0  0
  8 20  1  0  0  0  0
M  END
