 xtb: 6.7.1 (edcfbbe)
          04112514053D

 17 16  0     0  0            999 V2000
    3.0042   -1.0608    0.3416 C   0  0  0  0  0  0  0  0  0  0  0  0
    2.5632    0.1730   -0.4384 C   0  0  0  0  0  0  0  0  0  0  0  0
    1.3068    0.8158    0.1526 C   0  0  0  0  0  0  0  0  0  0  0  0
    0.0712    0.0276   -0.0864 C   0  0  0  0  0  0  0  0  0  0  0  0
   -1.1730    0.4844    0.1110 C   0  0  0  0  0  0  0  0  0  0  0  0
   -2.3335   -0.3350   -0.1351 C   0  0  0  0  0  0  0  0  0  0  0  0
   -3.4912    0.0095    0.0278 O   0  0  0  0  0  0  0  0  0  0  0  0
    3.2438   -0.7954    1.3689 H   0  0  0  0  0  0  0  0  0  0  0  0
    2.2217   -1.8153    0.3597 H   0  0  0  0  0  0  0  0  0  0  0  0
    3.8886   -1.5000   -0.1130 H   0  0  0  0  0  0  0  0  0  0  0  0
    2.3770   -0.0956   -1.4798 H   0  0  0  0  0  0  0  0  0  0  0  0
    3.3713    0.9060   -0.4259 H   0  0  0  0  0  0  0  0  0  0  0  0
    1.1710    1.8215   -0.2512 H   0  0  0  0  0  0  0  0  0  0  0  0
    1.4392    0.9310    1.2330 H   0  0  0  0  0  0  0  0  0  0  0  0
    0.1980   -0.9858   -0.4456 H   0  0  0  0  0  0  0  0  0  0  0  0
   -1.3595    1.4881    0.4662 H   0  0  0  0  0  0  0  0  0  0  0  0
   -2.1129   -1.3554   -0.5016 H   0  0  0  0  0  0  0  0  0  0  0  0
  1  2  1  0  0  0  0
  2  3  1  0  0  0  0
  3  4  1  0  0  0  0
  4  5  2  0  0  0  0
  5  6  1  0  0  0  0
  6  7  2  0  0  0  0
  1  8  1  0  0  0  0
  1  9  1  0  0  0  0
  1 10  1  0  0  0  0
  2 11  1  0  0  0  0
  2 12  1  0  0  0  0
  3 13  1  0  0  0  0
  3 14  1  0  0  0  0
  4 15  1  0  0  0  0
  5 16  1  0  0  0  0
  6 17  1  0  0  0  0
M  END
