 xtb: 6.7.1 (edcfbbe)
          04112517153D

 20 19  0     0  0            999 V2000
   -3.2815   -0.8365    0.3712 C   0  0  0  0  0  0  0  0  0  0  0  0
   -1.8907   -0.6092   -0.2088 C   0  0  0  0  0  0  0  0  0  0  0  0
   -1.4933    0.8646   -0.1551 C   0  0  0  0  0  0  0  0  0  0  0  0
   -0.1146    1.1076   -0.7775 C   0  0  0  0  0  0  0  0  0  0  0  0
    0.9632    0.4474    0.0417 C   0  0  0  0  0  0  0  0  0  0  0  0
    1.1514    0.6300    1.2262 O   0  0  0  0  0  0  0  0  0  0  0  0
    1.7017   -0.3804   -0.6904 O   0  0  0  0  0  0  0  0  0  0  0  0
    2.7698   -1.0715   -0.0372 C   0  0  0  0  0  0  0  0  0  0  0  0
   -3.3157   -0.5188    1.4107 H   0  0  0  0  0  0  0  0  0  0  0  0
   -4.0222   -0.2683   -0.1862 H   0  0  0  0  0  0  0  0  0  0  0  0
   -3.5470   -1.8894    0.3242 H   0  0  0  0  0  0  0  0  0  0  0  0
   -1.1613   -1.1985    0.3531 H   0  0  0  0  0  0  0  0  0  0  0  0
   -1.8672   -0.9528   -1.2451 H   0  0  0  0  0  0  0  0  0  0  0  0
   -1.4718    1.1982    0.8844 H   0  0  0  0  0  0  0  0  0  0  0  0
   -2.2333    1.4599   -0.6912 H   0  0  0  0  0  0  0  0  0  0  0  0
    0.0918    2.1790   -0.7893 H   0  0  0  0  0  0  0  0  0  0  0  0
   -0.0681    0.7178   -1.7935 H   0  0  0  0  0  0  0  0  0  0  0  0
    3.5339   -0.3603    0.2784 H   0  0  0  0  0  0  0  0  0  0  0  0
    3.1637   -1.7655   -0.7727 H   0  0  0  0  0  0  0  0  0  0  0  0
    2.3923   -1.5987    0.8399 H   0  0  0  0  0  0  0  0  0  0  0  0
  1  2  1  0  0  0  0
  2  3  1  0  0  0  0
  3  4  1  0  0  0  0
  4  5  1  0  0  0  0
  5  6  2  0  0  0  0
  5  7  1  0  0  0  0
  7  8  1  0  0  0  0
  1  9  1  0  0  0  0
  1 10  1  0  0  0  0
  1 11  1  0  0  0  0
  2 12  1  0  0  0  0
  2 13  1  0  0  0  0
  3 14  1  0  0  0  0
  3 15  1  0  0  0  0
  4 16  1  0  0  0  0
  4 17  1  0  0  0  0
  8 18  1  0  0  0  0
  8 19  1  0  0  0  0
  8 20  1  0  0  0  0
M  END
