 xtb: 6.7.1 (edcfbbe)
          04112516593D

 20 19  0     0  0            999 V2000
   -4.0224   -0.3673    0.0168 C   0  0  0  0  0  0  0  0  0  0  0  0
   -2.7493    0.4535   -0.1524 C   0  0  0  0  0  0  0  0  0  0  0  0
   -1.5031   -0.3921    0.0997 C   0  0  0  0  0  0  0  0  0  0  0  0
   -0.2318    0.4258   -0.0684 C   0  0  0  0  0  0  0  0  0  0  0  0
    0.8912   -0.4312    0.1794 O   0  0  0  0  0  0  0  0  0  0  0  0
    2.1053    0.1003    0.1018 C   0  0  0  0  0  0  0  0  0  0  0  0
    2.2990    1.2709   -0.1582 O   0  0  0  0  0  0  0  0  0  0  0  0
    3.1760   -0.9157    0.3596 C   0  0  0  0  0  0  0  0  0  0  0  0
   -4.0342   -1.1998   -0.6821 H   0  0  0  0  0  0  0  0  0  0  0  0
   -4.0870   -0.7657    1.0262 H   0  0  0  0  0  0  0  0  0  0  0  0
   -4.8984    0.2490   -0.1669 H   0  0  0  0  0  0  0  0  0  0  0  0
   -2.7097    0.8616   -1.1641 H   0  0  0  0  0  0  0  0  0  0  0  0
   -2.7616    1.2943    0.5437 H   0  0  0  0  0  0  0  0  0  0  0  0
   -1.5271   -0.7979    1.1120 H   0  0  0  0  0  0  0  0  0  0  0  0
   -1.4745   -1.2304   -0.5977 H   0  0  0  0  0  0  0  0  0  0  0  0
   -0.1451    0.8327   -1.0818 H   0  0  0  0  0  0  0  0  0  0  0  0
   -0.1946    1.2643    0.6355 H   0  0  0  0  0  0  0  0  0  0  0  0
    2.7465   -1.7938    0.8293 H   0  0  0  0  0  0  0  0  0  0  0  0
    3.9509   -0.4758    0.9803 H   0  0  0  0  0  0  0  0  0  0  0  0
    3.6232   -1.1937   -0.5923 H   0  0  0  0  0  0  0  0  0  0  0  0
  1  2  1  0  0  0  0
  2  3  1  0  0  0  0
  3  4  1  0  0  0  0
  4  5  1  0  0  0  0
  5  6  1  0  0  0  0
  6  7  2  0  0  0  0
  6  8  1  0  0  0  0
  1  9  1  0  0  0  0
  1 10  1  0  0  0  0
  1 11  1  0  0  0  0
  2 12  1  0  0  0  0
  2 13  1  0  0  0  0
  3 14  1  0  0  0  0
  3 15  1  0  0  0  0
  4 16  1  0  0  0  0
  4 17  1  0  0  0  0
  8 18  1  0  0  0  0
  8 19  1  0  0  0  0
  8 20  1  0  0  0  0
M  END
