 xtb: 6.7.1 (edcfbbe)
          04112516093D

 19 18  0     0  0            999 V2000
    2.9842   -0.0125   -0.6350 C   0  0  0  0  0  0  0  0  0  0  0  0
    1.6439   -0.3998   -0.0211 C   0  0  0  0  0  0  0  0  0  0  0  0
    0.8650    0.8289    0.4424 C   0  0  0  0  0  0  0  0  0  0  0  0
   -0.4856    0.4623    1.0781 C   0  0  0  0  0  0  0  0  0  0  0  0
   -1.3991   -0.1930    0.0717 C   0  0  0  0  0  0  0  0  0  0  0  0
   -1.5334   -1.4004    0.0093 O   0  0  0  0  0  0  0  0  0  0  0  0
   -2.1318    0.7450   -0.8399 C   0  0  0  0  0  0  0  0  0  0  0  0
    3.5273   -0.8988   -0.9525 H   0  0  0  0  0  0  0  0  0  0  0  0
    2.8363    0.6280   -1.5014 H   0  0  0  0  0  0  0  0  0  0  0  0
    3.5933    0.5236    0.0892 H   0  0  0  0  0  0  0  0  0  0  0  0
    1.8107   -1.0631    0.8304 H   0  0  0  0  0  0  0  0  0  0  0  0
    1.0523   -0.9553   -0.7528 H   0  0  0  0  0  0  0  0  0  0  0  0
    0.7053    1.4962   -0.4063 H   0  0  0  0  0  0  0  0  0  0  0  0
    1.4571    1.3680    1.1840 H   0  0  0  0  0  0  0  0  0  0  0  0
   -0.3133   -0.2334    1.9009 H   0  0  0  0  0  0  0  0  0  0  0  0
   -0.9578    1.3682    1.4568 H   0  0  0  0  0  0  0  0  0  0  0  0
   -1.4714    1.5313   -1.1923 H   0  0  0  0  0  0  0  0  0  0  0  0
   -2.5613    0.2033   -1.6779 H   0  0  0  0  0  0  0  0  0  0  0  0
   -2.9357    1.2105   -0.2725 H   0  0  0  0  0  0  0  0  0  0  0  0
  1  2  1  0  0  0  0
  2  3  1  0  0  0  0
  3  4  1  0  0  0  0
  4  5  1  0  0  0  0
  5  6  2  0  0  0  0
  5  7  1  0  0  0  0
  1  8  1  0  0  0  0
  1  9  1  0  0  0  0
  1 10  1  0  0  0  0
  2 11  1  0  0  0  0
  2 12  1  0  0  0  0
  3 13  1  0  0  0  0
  3 14  1  0  0  0  0
  4 15  1  0  0  0  0
  4 16  1  0  0  0  0
  7 17  1  0  0  0  0
  7 18  1  0  0  0  0
  7 19  1  0  0  0  0
M  END
