 xtb: 6.7.1 (edcfbbe)
          04112514133D

 23 22  0     0  0            999 V2000
    2.9398   -0.8769    0.3075 C   0  0  0  0  0  0  0  0  0  0  0  0
    2.3306    0.3192   -0.4157 C   0  0  0  0  0  0  0  0  0  0  0  0
    0.9534    0.7165    0.1201 C   0  0  0  0  0  0  0  0  0  0  0  0
   -0.1323   -0.3089   -0.2015 C   0  0  0  0  0  0  0  0  0  0  0  0
   -1.5136    0.0653    0.3493 C   0  0  0  0  0  0  0  0  0  0  0  0
   -2.1092    1.2705   -0.3754 C   0  0  0  0  0  0  0  0  0  0  0  0
   -2.4609   -1.1284    0.2294 C   0  0  0  0  0  0  0  0  0  0  0  0
    3.9462   -1.0651   -0.0590 H   0  0  0  0  0  0  0  0  0  0  0  0
    2.9940   -0.6859    1.3771 H   0  0  0  0  0  0  0  0  0  0  0  0
    2.3490   -1.7747    0.1473 H   0  0  0  0  0  0  0  0  0  0  0  0
    2.2503    0.0966   -1.4821 H   0  0  0  0  0  0  0  0  0  0  0  0
    3.0038    1.1730   -0.3069 H   0  0  0  0  0  0  0  0  0  0  0  0
    1.0146    0.8495    1.2031 H   0  0  0  0  0  0  0  0  0  0  0  0
    0.6817    1.6788   -0.3172 H   0  0  0  0  0  0  0  0  0  0  0  0
   -0.2013   -0.4332   -1.2850 H   0  0  0  0  0  0  0  0  0  0  0  0
    0.1541   -1.2720    0.2248 H   0  0  0  0  0  0  0  0  0  0  0  0
   -1.4051    0.3157    1.4111 H   0  0  0  0  0  0  0  0  0  0  0  0
   -3.1021    1.4891    0.0109 H   0  0  0  0  0  0  0  0  0  0  0  0
   -1.4929    2.1551   -0.2406 H   0  0  0  0  0  0  0  0  0  0  0  0
   -2.1932    1.0661   -1.4408 H   0  0  0  0  0  0  0  0  0  0  0  0
   -2.5780   -1.4129   -0.8141 H   0  0  0  0  0  0  0  0  0  0  0  0
   -3.4413   -0.8803    0.6295 H   0  0  0  0  0  0  0  0  0  0  0  0
   -2.0740   -1.9845    0.7775 H   0  0  0  0  0  0  0  0  0  0  0  0
  1  2  1  0  0  0  0
  2  3  1  0  0  0  0
  3  4  1  0  0  0  0
  4  5  1  0  0  0  0
  5  6  1  0  0  0  0
  5  7  1  0  0  0  0
  1  8  1  0  0  0  0
  1  9  1  0  0  0  0
  1 10  1  0  0  0  0
  2 11  1  0  0  0  0
  2 12  1  0  0  0  0
  3 13  1  0  0  0  0
  3 14  1  0  0  0  0
  4 15  1  0  0  0  0
  4 16  1  0  0  0  0
  5 17  1  0  0  0  0
  6 18  1  0  0  0  0
  6 19  1  0  0  0  0
  6 20  1  0  0  0  0
  7 21  1  0  0  0  0
  7 22  1  0  0  0  0
  7 23  1  0  0  0  0
M  END
