 xtb: 6.7.1 (edcfbbe)
          04112516113D

 17 16  0     0  0            999 V2000
   -3.4505   -0.1885   -0.0317 C   0  0  0  0  0  0  0  0  0  0  0  0
   -2.1904    0.5821    0.3434 C   0  0  0  0  0  0  0  0  0  0  0  0
   -0.9281   -0.1721   -0.0661 C   0  0  0  0  0  0  0  0  0  0  0  0
    0.3362    0.5946    0.3086 C   0  0  0  0  0  0  0  0  0  0  0  0
    1.5911   -0.1261   -0.0981 C   0  0  0  0  0  0  0  0  0  0  0  0
    1.6363   -1.1935   -0.6705 O   0  0  0  0  0  0  0  0  0  0  0  0
    2.6844    0.5442    0.2420 O   0  0  0  0  0  0  0  0  0  0  0  0
   -3.4901   -0.3531   -1.1060 H   0  0  0  0  0  0  0  0  0  0  0  0
   -3.4651   -1.1575    0.4619 H   0  0  0  0  0  0  0  0  0  0  0  0
   -4.3386    0.3631    0.2655 H   0  0  0  0  0  0  0  0  0  0  0  0
   -2.1766    0.7506    1.4220 H   0  0  0  0  0  0  0  0  0  0  0  0
   -2.2032    1.5576   -0.1468 H   0  0  0  0  0  0  0  0  0  0  0  0
   -0.9086   -1.1513    0.4167 H   0  0  0  0  0  0  0  0  0  0  0  0
   -0.9338   -0.3462   -1.1440 H   0  0  0  0  0  0  0  0  0  0  0  0
    0.3862    0.7615    1.3866 H   0  0  0  0  0  0  0  0  0  0  0  0
    0.3516    1.5765   -0.1693 H   0  0  0  0  0  0  0  0  0  0  0  0
    3.5053    0.0839   -0.0193 H   0  0  0  0  0  0  0  0  0  0  0  0
  1  2  1  0  0  0  0
  2  3  1  0  0  0  0
  3  4  1  0  0  0  0
  4  5  1  0  0  0  0
  5  6  2  0  0  0  0
  5  7  1  0  0  0  0
  1  8  1  0  0  0  0
  1  9  1  0  0  0  0
  1 10  1  0  0  0  0
  2 11  1  0  0  0  0
  2 12  1  0  0  0  0
  3 13  1  0  0  0  0
  3 14  1  0  0  0  0
  4 15  1  0  0  0  0
  4 16  1  0  0  0  0
  7 17  1  0  0  0  0
M  END
