 xtb: 6.7.1 (edcfbbe)
          04112514233D

 23 22  0     0  0            999 V2000
    3.0033   -0.7925    0.2447 C   0  0  0  0  0  0  0  0  0  0  0  0
    2.1208    0.4470    0.1087 C   0  0  0  0  0  0  0  0  0  0  0  0
    1.6336    0.5999   -1.3305 C   0  0  0  0  0  0  0  0  0  0  0  0
    0.9624    0.4425    1.1179 C   0  0  0  0  0  0  0  0  0  0  0  0
   -0.0082   -0.7335    1.0216 C   0  0  0  0  0  0  0  0  0  0  0  0
   -0.8100   -0.7034   -0.1668 O   0  0  0  0  0  0  0  0  0  0  0  0
   -1.8946    0.0609   -0.1789 C   0  0  0  0  0  0  0  0  0  0  0  0
   -2.2676    0.7137    0.7750 O   0  0  0  0  0  0  0  0  0  0  0  0
   -2.5855    0.0133   -1.5092 C   0  0  0  0  0  0  0  0  0  0  0  0
    3.2982   -0.9427    1.2803 H   0  0  0  0  0  0  0  0  0  0  0  0
    3.9025   -0.6742   -0.3547 H   0  0  0  0  0  0  0  0  0  0  0  0
    2.4829   -1.6802   -0.1045 H   0  0  0  0  0  0  0  0  0  0  0  0
    2.7310    1.3247    0.3535 H   0  0  0  0  0  0  0  0  0  0  0  0
    1.0071    1.4843   -1.4299 H   0  0  0  0  0  0  0  0  0  0  0  0
    1.0563   -0.2690   -1.6345 H   0  0  0  0  0  0  0  0  0  0  0  0
    2.4816    0.7038   -2.0033 H   0  0  0  0  0  0  0  0  0  0  0  0
    0.3873    1.3659    1.0115 H   0  0  0  0  0  0  0  0  0  0  0  0
    1.3781    0.4273    2.1268 H   0  0  0  0  0  0  0  0  0  0  0  0
    0.5167   -1.6869    0.9810 H   0  0  0  0  0  0  0  0  0  0  0  0
   -0.6798   -0.7131    1.8862 H   0  0  0  0  0  0  0  0  0  0  0  0
   -3.6392    0.2394   -1.3823 H   0  0  0  0  0  0  0  0  0  0  0  0
   -2.4430   -0.9604   -1.9658 H   0  0  0  0  0  0  0  0  0  0  0  0
   -2.1399    0.7691   -2.1530 H   0  0  0  0  0  0  0  0  0  0  0  0
  1  2  1  0  0  0  0
  2  3  1  0  0  0  0
  2  4  1  0  0  0  0
  4  5  1  0  0  0  0
  5  6  1  0  0  0  0
  6  7  1  0  0  0  0
  7  8  2  0  0  0  0
  7  9  1  0  0  0  0
  1 10  1  0  0  0  0
  1 11  1  0  0  0  0
  1 12  1  0  0  0  0
  2 13  1  0  0  0  0
  3 14  1  0  0  0  0
  3 15  1  0  0  0  0
  3 16  1  0  0  0  0
  4 17  1  0  0  0  0
  4 18  1  0  0  0  0
  5 19  1  0  0  0  0
  5 20  1  0  0  0  0
  9 21  1  0  0  0  0
  9 22  1  0  0  0  0
  9 23  1  0  0  0  0
M  END
