 xtb: 6.7.1 (edcfbbe)
          04112514523D

 17 16  0     0  0            999 V2000
    2.9648   -1.0961    0.0897 C   0  0  0  0  0  0  0  0  0  0  0  0
    2.4572    0.2496   -0.4142 C   0  0  0  0  0  0  0  0  0  0  0  0
    1.3170    0.8298    0.4418 C   0  0  0  0  0  0  0  0  0  0  0  0
    0.0758    0.0251    0.3402 C   0  0  0  0  0  0  0  0  0  0  0  0
   -1.0895    0.4776   -0.1388 C   0  0  0  0  0  0  0  0  0  0  0  0
   -2.2613   -0.3619   -0.2217 C   0  0  0  0  0  0  0  0  0  0  0  0
   -3.3495   -0.0163   -0.6461 O   0  0  0  0  0  0  0  0  0  0  0  0
    3.2658   -1.0256    1.1324 H   0  0  0  0  0  0  0  0  0  0  0  0
    2.2029   -1.8654   -0.0007 H   0  0  0  0  0  0  0  0  0  0  0  0
    3.8270   -1.4094   -0.4938 H   0  0  0  0  0  0  0  0  0  0  0  0
    2.1133    0.1512   -1.4453 H   0  0  0  0  0  0  0  0  0  0  0  0
    3.2801    0.9660   -0.4040 H   0  0  0  0  0  0  0  0  0  0  0  0
    1.1203    1.8560    0.1302 H   0  0  0  0  0  0  0  0  0  0  0  0
    1.6435    0.8373    1.4847 H   0  0  0  0  0  0  0  0  0  0  0  0
    0.1397   -1.0024    0.6738 H   0  0  0  0  0  0  0  0  0  0  0  0
   -1.2036    1.4959   -0.4833 H   0  0  0  0  0  0  0  0  0  0  0  0
   -2.1176   -1.3979    0.1387 H   0  0  0  0  0  0  0  0  0  0  0  0
  1  2  1  0  0  0  0
  2  3  1  0  0  0  0
  3  4  1  0  0  0  0
  4  5  2  0  0  0  0
  5  6  1  0  0  0  0
  6  7  2  0  0  0  0
  1  8  1  0  0  0  0
  1  9  1  0  0  0  0
  1 10  1  0  0  0  0
  2 11  1  0  0  0  0
  2 12  1  0  0  0  0
  3 13  1  0  0  0  0
  3 14  1  0  0  0  0
  4 15  1  0  0  0  0
  5 16  1  0  0  0  0
  6 17  1  0  0  0  0
M  END
