 xtb: 6.7.1 (edcfbbe)
          04112517493D

 26 26  0     0  0            999 V2000
   -3.4385    0.1473    1.2867 C   0  0  0  0  0  0  0  0  0  0  0  0
   -3.1408   -0.9471    0.2699 C   0  0  0  0  0  0  0  0  0  0  0  0
   -2.4220   -0.4016   -0.9720 C   0  0  0  0  0  0  0  0  0  0  0  0
   -1.0597    0.1333   -0.6324 C   0  0  0  0  0  0  0  0  0  0  0  0
   -0.8267    1.4928   -0.5118 C   0  0  0  0  0  0  0  0  0  0  0  0
    0.4267    1.9690   -0.1631 C   0  0  0  0  0  0  0  0  0  0  0  0
    1.4674    1.0890    0.0722 C   0  0  0  0  0  0  0  0  0  0  0  0
    1.2428   -0.2923   -0.0486 C   0  0  0  0  0  0  0  0  0  0  0  0
   -0.0120   -0.7541   -0.3982 C   0  0  0  0  0  0  0  0  0  0  0  0
    2.3449   -1.0810    0.2028 O   0  0  0  0  0  0  0  0  0  0  0  0
    2.2018   -2.4827    0.1047 C   0  0  0  0  0  0  0  0  0  0  0  0
    2.6976    1.5688    0.4150 O   0  0  0  0  0  0  0  0  0  0  0  0
   -4.0767    0.9109    0.8481 H   0  0  0  0  0  0  0  0  0  0  0  0
   -3.9454   -0.2674    2.1546 H   0  0  0  0  0  0  0  0  0  0  0  0
   -2.5161    0.6197    1.6172 H   0  0  0  0  0  0  0  0  0  0  0  0
   -4.0759   -1.4164   -0.0421 H   0  0  0  0  0  0  0  0  0  0  0  0
   -2.5191   -1.7140    0.7361 H   0  0  0  0  0  0  0  0  0  0  0  0
   -3.0271    0.3911   -1.4142 H   0  0  0  0  0  0  0  0  0  0  0  0
   -2.3252   -1.2064   -1.7037 H   0  0  0  0  0  0  0  0  0  0  0  0
   -1.6270    2.1941   -0.6909 H   0  0  0  0  0  0  0  0  0  0  0  0
    0.6176    3.0259   -0.0676 H   0  0  0  0  0  0  0  0  0  0  0  0
   -0.1953   -1.8125   -0.4970 H   0  0  0  0  0  0  0  0  0  0  0  0
    1.4643   -2.8542    0.8207 H   0  0  0  0  0  0  0  0  0  0  0  0
    3.1822   -2.8883    0.3445 H   0  0  0  0  0  0  0  0  0  0  0  0
    1.9180   -2.7795   -0.9082 H   0  0  0  0  0  0  0  0  0  0  0  0
    3.3008    0.8185    0.5387 H   0  0  0  0  0  0  0  0  0  0  0  0
  1  2  1  0  0  0  0
  2  3  1  0  0  0  0
  3  4  1  0  0  0  0
  4  5  4  0  0  0  0
  5  6  4  0  0  0  0
  6  7  4  0  0  0  0
  7  8  4  0  0  0  0
  4  9  4  0  0  0  0
  8  9  4  0  0  0  0
  8 10  1  0  0  0  0
 10 11  1  0  0  0  0
  7 12  1  0  0  0  0
  1 13  1  0  0  0  0
  1 14  1  0  0  0  0
  1 15  1  0  0  0  0
  2 16  1  0  0  0  0
  2 17  1  0  0  0  0
  3 18  1  0  0  0  0
  3 19  1  0  0  0  0
  5 20  1  0  0  0  0
  6 21  1  0  0  0  0
  9 22  1  0  0  0  0
 11 23  1  0  0  0  0
 11 24  1  0  0  0  0
 11 25  1  0  0  0  0
 12 26  1  0  0  0  0
M  END
