 xtb: 6.7.1 (edcfbbe)
          04112516273D

 20 19  0     0  0            999 V2000
    3.9059    0.0984   -0.4866 C   0  0  0  0  0  0  0  0  0  0  0  0
    2.4992   -0.2445   -0.1119 C   0  0  0  0  0  0  0  0  0  0  0  0
    2.0144   -1.3544   -0.1351 O   0  0  0  0  0  0  0  0  0  0  0  0
    1.8154    0.8439    0.2578 O   0  0  0  0  0  0  0  0  0  0  0  0
    0.4472    0.6942    0.6222 C   0  0  0  0  0  0  0  0  0  0  0  0
   -0.4477    0.6923   -0.6231 C   0  0  0  0  0  0  0  0  0  0  0  0
   -1.8160    0.8419   -0.2592 O   0  0  0  0  0  0  0  0  0  0  0  0
   -2.4988   -0.2462    0.1138 C   0  0  0  0  0  0  0  0  0  0  0  0
   -2.0129   -1.3555    0.1402 O   0  0  0  0  0  0  0  0  0  0  0  0
   -3.9058    0.0966    0.4876 C   0  0  0  0  0  0  0  0  0  0  0  0
    4.1722    1.0676   -0.0800 H   0  0  0  0  0  0  0  0  0  0  0  0
    3.9725    0.1306   -1.5720 H   0  0  0  0  0  0  0  0  0  0  0  0
    4.5760   -0.6782   -0.1306 H   0  0  0  0  0  0  0  0  0  0  0  0
    0.3113   -0.2408    1.1763 H   0  0  0  0  0  0  0  0  0  0  0  0
    0.2136    1.5543    1.2514 H   0  0  0  0  0  0  0  0  0  0  0  0
   -0.3109   -0.2438   -1.1750 H   0  0  0  0  0  0  0  0  0  0  0  0
   -0.2147    1.5512   -1.2543 H   0  0  0  0  0  0  0  0  0  0  0  0
   -3.9688    0.1452    1.5727 H   0  0  0  0  0  0  0  0  0  0  0  0
   -4.5739   -0.6877    0.1454 H   0  0  0  0  0  0  0  0  0  0  0  0
   -4.1770    1.0589    0.0680 H   0  0  0  0  0  0  0  0  0  0  0  0
  1  2  1  0  0  0  0
  2  3  2  0  0  0  0
  2  4  1  0  0  0  0
  4  5  1  0  0  0  0
  5  6  1  0  0  0  0
  6  7  1  0  0  0  0
  7  8  1  0  0  0  0
  8  9  2  0  0  0  0
  8 10  1  0  0  0  0
  1 11  1  0  0  0  0
  1 12  1  0  0  0  0
  1 13  1  0  0  0  0
  5 14  1  0  0  0  0
  5 15  1  0  0  0  0
  6 16  1  0  0  0  0
  6 17  1  0  0  0  0
 10 18  1  0  0  0  0
 10 19  1  0  0  0  0
 10 20  1  0  0  0  0
M  END
