 xtb: 6.7.1 (edcfbbe)
          04112516013D

 20 19  0     0  0            999 V2000
   -3.2231   -0.5516   -0.6091 C   0  0  0  0  0  0  0  0  0  0  0  0
   -2.3769   -0.4334    0.6536 C   0  0  0  0  0  0  0  0  0  0  0  0
   -1.5316    0.8417    0.6880 C   0  0  0  0  0  0  0  0  0  0  0  0
   -0.3515    0.7995   -0.2737 C   0  0  0  0  0  0  0  0  0  0  0  0
    0.5719   -0.2061    0.1713 O   0  0  0  0  0  0  0  0  0  0  0  0
    1.8510   -0.0775   -0.1509 C   0  0  0  0  0  0  0  0  0  0  0  0
    2.2819    0.8397   -0.8220 O   0  0  0  0  0  0  0  0  0  0  0  0
    2.6835   -1.1868    0.4185 C   0  0  0  0  0  0  0  0  0  0  0  0
   -2.5996   -0.6125   -1.4975 H   0  0  0  0  0  0  0  0  0  0  0  0
   -3.8365   -1.4481   -0.5665 H   0  0  0  0  0  0  0  0  0  0  0  0
   -3.8798    0.3097   -0.7086 H   0  0  0  0  0  0  0  0  0  0  0  0
   -3.0386   -0.4319    1.5213 H   0  0  0  0  0  0  0  0  0  0  0  0
   -1.7159   -1.2971    0.7377 H   0  0  0  0  0  0  0  0  0  0  0  0
   -2.1487    1.7024    0.4288 H   0  0  0  0  0  0  0  0  0  0  0  0
   -1.1414    0.9891    1.6961 H   0  0  0  0  0  0  0  0  0  0  0  0
   -0.6670    0.5447   -1.2893 H   0  0  0  0  0  0  0  0  0  0  0  0
    0.1728    1.7602   -0.3071 H   0  0  0  0  0  0  0  0  0  0  0  0
    2.0472   -1.9140    0.9103 H   0  0  0  0  0  0  0  0  0  0  0  0
    3.3900   -0.7638    1.1287 H   0  0  0  0  0  0  0  0  0  0  0  0
    3.2539   -1.6513   -0.3812 H   0  0  0  0  0  0  0  0  0  0  0  0
  1  2  1  0  0  0  0
  2  3  1  0  0  0  0
  3  4  1  0  0  0  0
  4  5  1  0  0  0  0
  5  6  1  0  0  0  0
  6  7  2  0  0  0  0
  6  8  1  0  0  0  0
  1  9  1  0  0  0  0
  1 10  1  0  0  0  0
  1 11  1  0  0  0  0
  2 12  1  0  0  0  0
  2 13  1  0  0  0  0
  3 14  1  0  0  0  0
  3 15  1  0  0  0  0
  4 16  1  0  0  0  0
  4 17  1  0  0  0  0
  8 18  1  0  0  0  0
  8 19  1  0  0  0  0
  8 20  1  0  0  0  0
M  END
