 xtb: 6.7.1 (edcfbbe)
          04112514243D

 14 13  0     0  0            999 V2000
    0.3977    0.8045    0.6533 C   0  0  0  0  0  0  0  0  0  0  0  0
   -0.3977    0.8045   -0.6533 C   0  0  0  0  0  0  0  0  0  0  0  0
   -1.4021   -0.3288   -0.7608 C   0  0  0  0  0  0  0  0  0  0  0  0
   -2.6828   -0.1857    0.4996 Cl  0  0  0  0  0  0  0  0  0  0  0  0
    1.4021   -0.3288    0.7608 C   0  0  0  0  0  0  0  0  0  0  0  0
    2.6828   -0.1857   -0.4996 Cl  0  0  0  0  0  0  0  0  0  0  0  0
   -0.2922    0.7155    1.4945 H   0  0  0  0  0  0  0  0  0  0  0  0
    0.9243    1.7548    0.7451 H   0  0  0  0  0  0  0  0  0  0  0  0
    0.2923    0.7155   -1.4945 H   0  0  0  0  0  0  0  0  0  0  0  0
   -0.9243    1.7548   -0.7451 H   0  0  0  0  0  0  0  0  0  0  0  0
   -1.9207   -0.3028   -1.7170 H   0  0  0  0  0  0  0  0  0  0  0  0
   -0.9434   -1.3037   -0.6138 H   0  0  0  0  0  0  0  0  0  0  0  0
    1.9208   -0.3028    1.7170 H   0  0  0  0  0  0  0  0  0  0  0  0
    0.9435   -1.3037    0.6138 H   0  0  0  0  0  0  0  0  0  0  0  0
  1  2  1  0  0  0  0
  2  3  1  0  0  0  0
  3  4  1  0  0  0  0
  1  5  1  0  0  0  0
  5  6  1  0  0  0  0
  1  7  1  0  0  0  0
  1  8  1  0  0  0  0
  2  9  1  0  0  0  0
  2 10  1  0  0  0  0
  3 11  1  0  0  0  0
  3 12  1  0  0  0  0
  5 13  1  0  0  0  0
  5 14  1  0  0  0  0
M  END
