 xtb: 6.7.1 (edcfbbe)
          04112516113D

 17 16  0     0  0            999 V2000
   -3.5115   -0.8038    0.2340 C   0  0  0  0  0  0  0  0  0  0  0  0
   -2.0762   -0.3790   -0.0535 C   0  0  0  0  0  0  0  0  0  0  0  0
   -1.9248    1.1400    0.0071 C   0  0  0  0  0  0  0  0  0  0  0  0
   -0.5665    1.6585   -0.4684 C   0  0  0  0  0  0  0  0  0  0  0  0
    0.6040    1.2627    0.4163 C   0  0  0  0  0  0  0  0  0  0  0  0
    1.3612   -0.5081   -0.0298 Br  0  0  0  0  0  0  0  0  0  0  0  0
   -4.1905   -0.3797   -0.5022 H   0  0  0  0  0  0  0  0  0  0  0  0
   -3.8191   -0.4633    1.2203 H   0  0  0  0  0  0  0  0  0  0  0  0
   -3.6008   -1.8866    0.2011 H   0  0  0  0  0  0  0  0  0  0  0  0
   -1.4176   -0.8530    0.6758 H   0  0  0  0  0  0  0  0  0  0  0  0
   -1.7845   -0.7349   -1.0443 H   0  0  0  0  0  0  0  0  0  0  0  0
   -2.6928    1.5902   -0.6256 H   0  0  0  0  0  0  0  0  0  0  0  0
   -2.1017    1.4796    1.0305 H   0  0  0  0  0  0  0  0  0  0  0  0
   -0.3838    1.3292   -1.4934 H   0  0  0  0  0  0  0  0  0  0  0  0
   -0.6026    2.7508   -0.4753 H   0  0  0  0  0  0  0  0  0  0  0  0
    0.3206    1.2032    1.4655 H   0  0  0  0  0  0  0  0  0  0  0  0
    1.4420    1.9466    0.2966 H   0  0  0  0  0  0  0  0  0  0  0  0
  1  2  1  0  0  0  0
  2  3  1  0  0  0  0
  3  4  1  0  0  0  0
  4  5  1  0  0  0  0
  5  6  1  0  0  0  0
  1  7  1  0  0  0  0
  1  8  1  0  0  0  0
  1  9  1  0  0  0  0
  2 10  1  0  0  0  0
  2 11  1  0  0  0  0
  3 12  1  0  0  0  0
  3 13  1  0  0  0  0
  4 14  1  0  0  0  0
  4 15  1  0  0  0  0
  5 16  1  0  0  0  0
  5 17  1  0  0  0  0
M  END
