 xtb: 6.7.1 (edcfbbe)
          04112516053D

 23 23  0     0  0            999 V2000
   -4.0348    1.0737   -0.0386 C   0  0  0  0  0  0  0  0  0  0  0  0
   -3.2620   -0.1180    0.0386 O   0  0  0  0  0  0  0  0  0  0  0  0
   -1.9090   -0.0861    0.0157 C   0  0  0  0  0  0  0  0  0  0  0  0
   -1.2915   -1.3269    0.0801 C   0  0  0  0  0  0  0  0  0  0  0  0
    0.0936   -1.4780    0.0522 C   0  0  0  0  0  0  0  0  0  0  0  0
    0.9051   -0.3307   -0.0367 C   0  0  0  0  0  0  0  0  0  0  0  0
    0.3185    0.9271   -0.0620 C   0  0  0  0  0  0  0  0  0  0  0  0
   -1.0937    1.0548   -0.0519 C   0  0  0  0  0  0  0  0  0  0  0  0
   -1.6164    2.2932   -0.1095 O   0  0  0  0  0  0  0  0  0  0  0  0
    0.9312    2.1447   -0.1367 O   0  0  0  0  0  0  0  0  0  0  0  0
    2.2211    2.3774    0.4137 C   0  0  0  0  0  0  0  0  0  0  0  0
    2.6232   -0.5457   -0.1628 Cl  0  0  0  0  0  0  0  0  0  0  0  0
    0.6162   -2.8332    0.1091 C   0  0  0  0  0  0  0  0  0  0  0  0
    1.7803   -3.1861    0.1026 O   0  0  0  0  0  0  0  0  0  0  0  0
   -5.0665    0.7297   -0.0172 H   0  0  0  0  0  0  0  0  0  0  0  0
   -3.8415    1.6120   -0.9665 H   0  0  0  0  0  0  0  0  0  0  0  0
   -3.8429    1.7264    0.8130 H   0  0  0  0  0  0  0  0  0  0  0  0
   -1.9256   -2.1960    0.1444 H   0  0  0  0  0  0  0  0  0  0  0  0
   -0.8895    2.9441   -0.1428 H   0  0  0  0  0  0  0  0  0  0  0  0
    3.0070    2.0819   -0.2803 H   0  0  0  0  0  0  0  0  0  0  0  0
    2.3483    1.8519    1.3595 H   0  0  0  0  0  0  0  0  0  0  0  0
    2.2636    3.4528    0.5778 H   0  0  0  0  0  0  0  0  0  0  0  0
   -0.1806   -3.5956    0.1666 H   0  0  0  0  0  0  0  0  0  0  0  0
  1  2  1  0  0  0  0
  2  3  1  0  0  0  0
  3  4  4  0  0  0  0
  4  5  4  0  0  0  0
  5  6  4  0  0  0  0
  6  7  4  0  0  0  0
  3  8  4  0  0  0  0
  7  8  4  0  0  0  0
  8  9  1  0  0  0  0
  7 10  1  0  0  0  0
 10 11  1  0  0  0  0
  6 12  1  0  0  0  0
  5 13  1  0  0  0  0
 13 14  2  0  0  0  0
  1 15  1  0  0  0  0
  1 16  1  0  0  0  0
  1 17  1  0  0  0  0
  4 18  1  0  0  0  0
  9 19  1  0  0  0  0
 11 20  1  0  0  0  0
 11 21  1  0  0  0  0
 11 22  1  0  0  0  0
 13 23  1  0  0  0  0
M  END
