 xtb: 6.7.1 (edcfbbe)
          04112516153D

 26 25  0     0  0            999 V2000
    0.4988    0.6483   -1.2786 C   0  0  0  0  0  0  0  0  0  0  0  0
    1.2750   -0.2712   -0.3472 C   0  0  0  0  0  0  0  0  0  0  0  0
    1.4384   -1.6647   -0.9558 C   0  0  0  0  0  0  0  0  0  0  0  0
    0.7739   -0.4226    1.0526 C   0  0  0  0  0  0  0  0  0  0  0  0
   -0.2784   -0.0990    1.6669 N   0  0  0  0  0  0  0  0  0  0  0  0
   -1.3553    0.5027    0.9674 O   0  0  0  0  0  0  0  0  0  0  0  0
   -2.1038   -0.3215    0.1756 C   0  0  0  0  0  0  0  0  0  0  0  0
   -1.7805   -1.4602   -0.1072 O   0  0  0  0  0  0  0  0  0  0  0  0
   -3.1974    0.3222   -0.2290 N   0  0  0  0  0  0  0  0  0  0  0  0
   -4.1921   -0.2801   -1.0890 C   0  0  0  0  0  0  0  0  0  0  0  0
    3.0018    0.3998   -0.1268 S   0  0  0  0  0  0  0  0  0  0  0  0
    2.6851    2.0337    0.6048 C   0  0  0  0  0  0  0  0  0  0  0  0
    1.1146    0.8758   -2.1463 H   0  0  0  0  0  0  0  0  0  0  0  0
   -0.4057    0.1527   -1.6251 H   0  0  0  0  0  0  0  0  0  0  0  0
    0.2242    1.5782   -0.7849 H   0  0  0  0  0  0  0  0  0  0  0  0
    0.4622   -2.1445   -1.0121 H   0  0  0  0  0  0  0  0  0  0  0  0
    2.0991   -2.2753   -0.3453 H   0  0  0  0  0  0  0  0  0  0  0  0
    1.8595   -1.5811   -1.9540 H   0  0  0  0  0  0  0  0  0  0  0  0
    1.4895   -0.8875    1.7236 H   0  0  0  0  0  0  0  0  0  0  0  0
   -3.3464    1.2619    0.1063 H   0  0  0  0  0  0  0  0  0  0  0  0
   -5.1546   -0.3180   -0.5812 H   0  0  0  0  0  0  0  0  0  0  0  0
   -3.8662   -1.2918   -1.3218 H   0  0  0  0  0  0  0  0  0  0  0  0
   -4.2865    0.2937   -2.0100 H   0  0  0  0  0  0  0  0  0  0  0  0
    1.9907    1.9329    1.4330 H   0  0  0  0  0  0  0  0  0  0  0  0
    2.3003    2.7088   -0.1526 H   0  0  0  0  0  0  0  0  0  0  0  0
    3.6458    2.3863    0.9637 H   0  0  0  0  0  0  0  0  0  0  0  0
  1  2  1  0  0  0  0
  2  3  1  0  0  0  0
  2  4  1  0  0  0  0
  4  5  2  0  0  0  0
  5  6  1  0  0  0  0
  6  7  1  0  0  0  0
  7  8  2  0  0  0  0
  7  9  4  0  0  0  0
  9 10  1  0  0  0  0
  2 11  1  0  0  0  0
 11 12  1  0  0  0  0
  1 13  1  0  0  0  0
  1 14  1  0  0  0  0
  1 15  1  0  0  0  0
  3 16  1  0  0  0  0
  3 17  1  0  0  0  0
  3 18  1  0  0  0  0
  4 19  1  0  0  0  0
  9 20  1  0  0  0  0
 10 21  1  0  0  0  0
 10 22  1  0  0  0  0
 10 23  1  0  0  0  0
 12 24  1  0  0  0  0
 12 25  1  0  0  0  0
 12 26  1  0  0  0  0
M  END
