 xtb: 6.7.1 (edcfbbe)
          04112516293D

 20 19  0     0  0            999 V2000
   -3.3392    0.7490   -0.5823 C   0  0  0  0  0  0  0  0  0  0  0  0
   -2.8765   -0.4500    0.2384 C   0  0  0  0  0  0  0  0  0  0  0  0
   -1.5029   -0.2466    0.8773 C   0  0  0  0  0  0  0  0  0  0  0  0
   -0.3867   -0.1584   -0.1539 C   0  0  0  0  0  0  0  0  0  0  0  0
    0.8650   -0.1354    0.5478 O   0  0  0  0  0  0  0  0  0  0  0  0
    1.9723    0.0176   -0.1682 C   0  0  0  0  0  0  0  0  0  0  0  0
    1.9664    0.1479   -1.3759 O   0  0  0  0  0  0  0  0  0  0  0  0
    3.1995   -0.0073    0.6913 C   0  0  0  0  0  0  0  0  0  0  0  0
   -4.3547    0.5905   -0.9361 H   0  0  0  0  0  0  0  0  0  0  0  0
   -3.3239    1.6525    0.0223 H   0  0  0  0  0  0  0  0  0  0  0  0
   -2.6997    0.9009   -1.4477 H   0  0  0  0  0  0  0  0  0  0  0  0
   -3.5982   -0.6322    1.0361 H   0  0  0  0  0  0  0  0  0  0  0  0
   -2.8511   -1.3373   -0.3969 H   0  0  0  0  0  0  0  0  0  0  0  0
   -1.5022    0.6645    1.4771 H   0  0  0  0  0  0  0  0  0  0  0  0
   -1.2809   -1.0851    1.5390 H   0  0  0  0  0  0  0  0  0  0  0  0
   -0.3942   -1.0241   -0.8253 H   0  0  0  0  0  0  0  0  0  0  0  0
   -0.4559    0.7469   -0.7644 H   0  0  0  0  0  0  0  0  0  0  0  0
    3.5901   -1.0228    0.6999 H   0  0  0  0  0  0  0  0  0  0  0  0
    2.9470    0.2842    1.7050 H   0  0  0  0  0  0  0  0  0  0  0  0
    3.9547    0.6469    0.2670 H   0  0  0  0  0  0  0  0  0  0  0  0
  1  2  1  0  0  0  0
  2  3  1  0  0  0  0
  3  4  1  0  0  0  0
  4  5  1  0  0  0  0
  5  6  1  0  0  0  0
  6  7  2  0  0  0  0
  6  8  1  0  0  0  0
  1  9  1  0  0  0  0
  1 10  1  0  0  0  0
  1 11  1  0  0  0  0
  2 12  1  0  0  0  0
  2 13  1  0  0  0  0
  3 14  1  0  0  0  0
  3 15  1  0  0  0  0
  4 16  1  0  0  0  0
  4 17  1  0  0  0  0
  8 18  1  0  0  0  0
  8 19  1  0  0  0  0
  8 20  1  0  0  0  0
M  END
