 xtb: 6.7.1 (edcfbbe)
          04112516203D

 17 16  0     0  0            999 V2000
   -2.9347   -0.3087    0.6845 C   0  0  0  0  0  0  0  0  0  0  0  0
   -2.2546    0.7189   -0.2132 C   0  0  0  0  0  0  0  0  0  0  0  0
   -0.7505    0.8337    0.0334 C   0  0  0  0  0  0  0  0  0  0  0  0
   -0.0008   -0.4499   -0.3328 C   0  0  0  0  0  0  0  0  0  0  0  0
    1.4903   -0.3128   -0.2027 C   0  0  0  0  0  0  0  0  0  0  0  0
    2.2907   -0.7938   -0.9800 O   0  0  0  0  0  0  0  0  0  0  0  0
    1.8672    0.3733    0.8631 O   0  0  0  0  0  0  0  0  0  0  0  0
   -2.5980   -1.3156    0.4530 H   0  0  0  0  0  0  0  0  0  0  0  0
   -2.7196   -0.1019    1.7302 H   0  0  0  0  0  0  0  0  0  0  0  0
   -4.0121   -0.2744    0.5430 H   0  0  0  0  0  0  0  0  0  0  0  0
   -2.7042    1.6975   -0.0341 H   0  0  0  0  0  0  0  0  0  0  0  0
   -2.4304    0.4609   -1.2595 H   0  0  0  0  0  0  0  0  0  0  0  0
   -0.3560    1.6557   -0.5677 H   0  0  0  0  0  0  0  0  0  0  0  0
   -0.5670    1.0692    1.0825 H   0  0  0  0  0  0  0  0  0  0  0  0
   -0.2242   -0.7592   -1.3545 H   0  0  0  0  0  0  0  0  0  0  0  0
   -0.2996   -1.2551    0.3419 H   0  0  0  0  0  0  0  0  0  0  0  0
    2.8384    0.4419    0.9409 H   0  0  0  0  0  0  0  0  0  0  0  0
  1  2  1  0  0  0  0
  2  3  1  0  0  0  0
  3  4  1  0  0  0  0
  4  5  1  0  0  0  0
  5  6  2  0  0  0  0
  5  7  1  0  0  0  0
  1  8  1  0  0  0  0
  1  9  1  0  0  0  0
  1 10  1  0  0  0  0
  2 11  1  0  0  0  0
  2 12  1  0  0  0  0
  3 13  1  0  0  0  0
  3 14  1  0  0  0  0
  4 15  1  0  0  0  0
  4 16  1  0  0  0  0
  7 17  1  0  0  0  0
M  END
