 xtb: 6.7.1 (edcfbbe)
          04112516183D

 26 26  0     0  0            999 V2000
   -3.1956   -0.6773    1.2078 C   0  0  0  0  0  0  0  0  0  0  0  0
   -3.4839    0.0376   -0.1061 C   0  0  0  0  0  0  0  0  0  0  0  0
   -2.4440   -0.2932   -1.1856 C   0  0  0  0  0  0  0  0  0  0  0  0
   -1.0766    0.2005   -0.8057 C   0  0  0  0  0  0  0  0  0  0  0  0
   -0.7660    1.5484   -0.8936 C   0  0  0  0  0  0  0  0  0  0  0  0
    0.4796    2.0152   -0.5114 C   0  0  0  0  0  0  0  0  0  0  0  0
    1.4381    1.1379   -0.0348 C   0  0  0  0  0  0  0  0  0  0  0  0
    1.1361   -0.2298    0.0553 C   0  0  0  0  0  0  0  0  0  0  0  0
   -0.1135   -0.6830   -0.3280 C   0  0  0  0  0  0  0  0  0  0  0  0
    2.1594   -1.0177    0.5372 O   0  0  0  0  0  0  0  0  0  0  0  0
    1.9397   -2.4087    0.6465 C   0  0  0  0  0  0  0  0  0  0  0  0
    2.6630    1.6094    0.3379 O   0  0  0  0  0  0  0  0  0  0  0  0
   -3.1979   -1.7555    1.0639 H   0  0  0  0  0  0  0  0  0  0  0  0
   -2.2226   -0.3815    1.5939 H   0  0  0  0  0  0  0  0  0  0  0  0
   -3.9507   -0.4282    1.9493 H   0  0  0  0  0  0  0  0  0  0  0  0
   -3.4913    1.1159    0.0634 H   0  0  0  0  0  0  0  0  0  0  0  0
   -4.4719   -0.2535   -0.4683 H   0  0  0  0  0  0  0  0  0  0  0  0
   -2.7498    0.1777   -2.1220 H   0  0  0  0  0  0  0  0  0  0  0  0
   -2.4198   -1.3733   -1.3385 H   0  0  0  0  0  0  0  0  0  0  0  0
   -1.5010    2.2451   -1.2665 H   0  0  0  0  0  0  0  0  0  0  0  0
    0.7308    3.0618   -0.5769 H   0  0  0  0  0  0  0  0  0  0  0  0
   -0.3553   -1.7319   -0.2603 H   0  0  0  0  0  0  0  0  0  0  0  0
    1.1242   -2.6253    1.3412 H   0  0  0  0  0  0  0  0  0  0  0  0
    2.8703   -2.8159    1.0354 H   0  0  0  0  0  0  0  0  0  0  0  0
    1.7234   -2.8507   -0.3294 H   0  0  0  0  0  0  0  0  0  0  0  0
    3.2050    0.8629    0.6398 H   0  0  0  0  0  0  0  0  0  0  0  0
  1  2  1  0  0  0  0
  2  3  1  0  0  0  0
  3  4  1  0  0  0  0
  4  5  4  0  0  0  0
  5  6  4  0  0  0  0
  6  7  4  0  0  0  0
  7  8  4  0  0  0  0
  4  9  4  0  0  0  0
  8  9  4  0  0  0  0
  8 10  1  0  0  0  0
 10 11  1  0  0  0  0
  7 12  1  0  0  0  0
  1 13  1  0  0  0  0
  1 14  1  0  0  0  0
  1 15  1  0  0  0  0
  2 16  1  0  0  0  0
  2 17  1  0  0  0  0
  3 18  1  0  0  0  0
  3 19  1  0  0  0  0
  5 20  1  0  0  0  0
  6 21  1  0  0  0  0
  9 22  1  0  0  0  0
 11 23  1  0  0  0  0
 11 24  1  0  0  0  0
 11 25  1  0  0  0  0
 12 26  1  0  0  0  0
M  END
