 xtb: 6.7.1 (edcfbbe)
          04112514233D

 18 17  0     0  0            999 V2000
    2.5596    0.7244    0.2059 C   0  0  0  0  0  0  0  0  0  0  0  0
    1.2802    0.2296   -0.4585 C   0  0  0  0  0  0  0  0  0  0  0  0
    0.4944   -0.7092    0.4552 C   0  0  0  0  0  0  0  0  0  0  0  0
   -0.8128   -1.1822   -0.1783 C   0  0  0  0  0  0  0  0  0  0  0  0
   -1.8899   -0.1485   -0.3179 C   0  0  0  0  0  0  0  0  0  0  0  0
   -1.9452    1.0371    0.2602 C   0  0  0  0  0  0  0  0  0  0  0  0
    3.2004   -0.1138    0.4712 H   0  0  0  0  0  0  0  0  0  0  0  0
    2.3286    1.2776    1.1137 H   0  0  0  0  0  0  0  0  0  0  0  0
    3.1103    1.3799   -0.4642 H   0  0  0  0  0  0  0  0  0  0  0  0
    0.6554    1.0825   -0.7291 H   0  0  0  0  0  0  0  0  0  0  0  0
    1.5326   -0.2986   -1.3811 H   0  0  0  0  0  0  0  0  0  0  0  0
    1.1117   -1.5839    0.6739 H   0  0  0  0  0  0  0  0  0  0  0  0
    0.2862   -0.2134    1.4046 H   0  0  0  0  0  0  0  0  0  0  0  0
   -0.6008   -1.5920   -1.1702 H   0  0  0  0  0  0  0  0  0  0  0  0
   -1.2239   -2.0027    0.4194 H   0  0  0  0  0  0  0  0  0  0  0  0
   -2.7091   -0.4601   -0.9556 H   0  0  0  0  0  0  0  0  0  0  0  0
   -2.7812    1.6978    0.1038 H   0  0  0  0  0  0  0  0  0  0  0  0
   -1.1720    1.4070    0.9108 H   0  0  0  0  0  0  0  0  0  0  0  0
  1  2  1  0  0  0  0
  2  3  1  0  0  0  0
  3  4  1  0  0  0  0
  4  5  1  0  0  0  0
  5  6  2  0  0  0  0
  1  7  1  0  0  0  0
  1  8  1  0  0  0  0
  1  9  1  0  0  0  0
  2 10  1  0  0  0  0
  2 11  1  0  0  0  0
  3 12  1  0  0  0  0
  3 13  1  0  0  0  0
  4 14  1  0  0  0  0
  4 15  1  0  0  0  0
  5 16  1  0  0  0  0
  6 17  1  0  0  0  0
  6 18  1  0  0  0  0
M  END
