 xtb: 6.7.1 (edcfbbe)
          04112516593D

 20 19  0     0  0            999 V2000
   -3.6293   -0.7355    0.1575 C   0  0  0  0  0  0  0  0  0  0  0  0
   -2.2115   -0.4306   -0.3102 C   0  0  0  0  0  0  0  0  0  0  0  0
   -1.6106    0.7495    0.4516 C   0  0  0  0  0  0  0  0  0  0  0  0
   -0.1934    1.0651   -0.0030 C   0  0  0  0  0  0  0  0  0  0  0  0
    0.6610   -0.0279    0.3652 O   0  0  0  0  0  0  0  0  0  0  0  0
    1.8509   -0.1149   -0.2138 C   0  0  0  0  0  0  0  0  0  0  0  0
    2.2535    0.6901   -1.0300 O   0  0  0  0  0  0  0  0  0  0  0  0
    2.6098   -1.3206    0.2523 C   0  0  0  0  0  0  0  0  0  0  0  0
   -3.6361   -0.9833    1.2160 H   0  0  0  0  0  0  0  0  0  0  0  0
   -4.2744    0.1260    0.0023 H   0  0  0  0  0  0  0  0  0  0  0  0
   -4.0392   -1.5765   -0.3955 H   0  0  0  0  0  0  0  0  0  0  0  0
   -1.5799   -1.3082   -0.1612 H   0  0  0  0  0  0  0  0  0  0  0  0
   -2.2206   -0.2024   -1.3784 H   0  0  0  0  0  0  0  0  0  0  0  0
   -2.2214    1.6394    0.2978 H   0  0  0  0  0  0  0  0  0  0  0  0
   -1.5914    0.5234    1.5184 H   0  0  0  0  0  0  0  0  0  0  0  0
   -0.1360    1.2028   -1.0881 H   0  0  0  0  0  0  0  0  0  0  0  0
    0.1865    1.9718    0.4790 H   0  0  0  0  0  0  0  0  0  0  0  0
    2.5857   -2.0694   -0.5365 H   0  0  0  0  0  0  0  0  0  0  0  0
    2.1524   -1.7217    1.1501 H   0  0  0  0  0  0  0  0  0  0  0  0
    3.6468   -1.0498    0.4273 H   0  0  0  0  0  0  0  0  0  0  0  0
  1  2  1  0  0  0  0
  2  3  1  0  0  0  0
  3  4  1  0  0  0  0
  4  5  1  0  0  0  0
  5  6  1  0  0  0  0
  6  7  2  0  0  0  0
  6  8  1  0  0  0  0
  1  9  1  0  0  0  0
  1 10  1  0  0  0  0
  1 11  1  0  0  0  0
  2 12  1  0  0  0  0
  2 13  1  0  0  0  0
  3 14  1  0  0  0  0
  3 15  1  0  0  0  0
  4 16  1  0  0  0  0
  4 17  1  0  0  0  0
  8 18  1  0  0  0  0
  8 19  1  0  0  0  0
  8 20  1  0  0  0  0
M  END
