 xtb: 6.7.1 (edcfbbe)
          04112516113D

 20 19  0     0  0            999 V2000
    2.3567   -1.3844    0.5398 C   0  0  0  0  0  0  0  0  0  0  0  0
    1.5248   -0.4395   -0.2662 C   0  0  0  0  0  0  0  0  0  0  0  0
    0.9075   -0.7293   -1.2700 O   0  0  0  0  0  0  0  0  0  0  0  0
    1.5312    0.7837    0.2608 O   0  0  0  0  0  0  0  0  0  0  0  0
    0.6957    1.7931   -0.3163 C   0  0  0  0  0  0  0  0  0  0  0  0
   -0.6965    1.7930    0.3164 C   0  0  0  0  0  0  0  0  0  0  0  0
   -1.5320    0.7835   -0.2604 O   0  0  0  0  0  0  0  0  0  0  0  0
   -1.5245   -0.4400    0.2661 C   0  0  0  0  0  0  0  0  0  0  0  0
   -0.9061   -0.7300    1.2691 O   0  0  0  0  0  0  0  0  0  0  0  0
   -2.3569   -1.3849   -0.5394 C   0  0  0  0  0  0  0  0  0  0  0  0
    2.7081   -2.1974   -0.0868 H   0  0  0  0  0  0  0  0  0  0  0  0
    1.7132   -1.7895    1.3203 H   0  0  0  0  0  0  0  0  0  0  0  0
    3.1786   -0.8525    1.0066 H   0  0  0  0  0  0  0  0  0  0  0  0
    1.2005    2.7348   -0.1045 H   0  0  0  0  0  0  0  0  0  0  0  0
    0.6127    1.6226   -1.3943 H   0  0  0  0  0  0  0  0  0  0  0  0
   -1.2015    2.7346    0.1044 H   0  0  0  0  0  0  0  0  0  0  0  0
   -0.6135    1.6228    1.3945 H   0  0  0  0  0  0  0  0  0  0  0  0
   -1.7138   -1.7904   -1.3201 H   0  0  0  0  0  0  0  0  0  0  0  0
   -3.1789   -0.8529   -1.0060 H   0  0  0  0  0  0  0  0  0  0  0  0
   -2.7083   -2.1976    0.0876 H   0  0  0  0  0  0  0  0  0  0  0  0
  1  2  1  0  0  0  0
  2  3  2  0  0  0  0
  2  4  1  0  0  0  0
  4  5  1  0  0  0  0
  5  6  1  0  0  0  0
  6  7  1  0  0  0  0
  7  8  1  0  0  0  0
  8  9  2  0  0  0  0
  8 10  1  0  0  0  0
  1 11  1  0  0  0  0
  1 12  1  0  0  0  0
  1 13  1  0  0  0  0
  5 14  1  0  0  0  0
  5 15  1  0  0  0  0
  6 16  1  0  0  0  0
  6 17  1  0  0  0  0
 10 18  1  0  0  0  0
 10 19  1  0  0  0  0
 10 20  1  0  0  0  0
M  END
