 xtb: 6.7.1 (edcfbbe)
          04112516053D

 23 23  0     0  0            999 V2000
   -3.9434    0.8794   -0.0288 C   0  0  0  0  0  0  0  0  0  0  0  0
   -3.1054   -0.2656    0.0741 O   0  0  0  0  0  0  0  0  0  0  0  0
   -1.7597   -0.1598    0.0159 C   0  0  0  0  0  0  0  0  0  0  0  0
   -1.0651   -1.3570    0.1102 C   0  0  0  0  0  0  0  0  0  0  0  0
    0.3261   -1.4330    0.0519 C   0  0  0  0  0  0  0  0  0  0  0  0
    1.0590   -0.2474   -0.0886 C   0  0  0  0  0  0  0  0  0  0  0  0
    0.3958    0.9686   -0.1465 C   0  0  0  0  0  0  0  0  0  0  0  0
   -1.0131    1.0268   -0.1201 C   0  0  0  0  0  0  0  0  0  0  0  0
   -1.5957    2.2328   -0.2344 O   0  0  0  0  0  0  0  0  0  0  0  0
    1.0234    2.1876   -0.2916 O   0  0  0  0  0  0  0  0  0  0  0  0
    1.8092    2.6303    0.8169 C   0  0  0  0  0  0  0  0  0  0  0  0
    2.7823   -0.2897   -0.2449 Cl  0  0  0  0  0  0  0  0  0  0  0  0
    0.9633   -2.7392    0.1363 C   0  0  0  0  0  0  0  0  0  0  0  0
    0.3741   -3.7960    0.2426 O   0  0  0  0  0  0  0  0  0  0  0  0
   -4.9538    0.4846    0.0485 H   0  0  0  0  0  0  0  0  0  0  0  0
   -3.8128    1.3808   -0.9879 H   0  0  0  0  0  0  0  0  0  0  0  0
   -3.7560    1.5820    0.7834 H   0  0  0  0  0  0  0  0  0  0  0  0
   -1.6229   -2.2738    0.2187 H   0  0  0  0  0  0  0  0  0  0  0  0
   -0.8996    2.9041   -0.3815 H   0  0  0  0  0  0  0  0  0  0  0  0
    2.1585    3.6208    0.5379 H   0  0  0  0  0  0  0  0  0  0  0  0
    2.6624    1.9762    0.9933 H   0  0  0  0  0  0  0  0  0  0  0  0
    1.1991    2.6844    1.7214 H   0  0  0  0  0  0  0  0  0  0  0  0
    2.0652   -2.7265    0.1004 H   0  0  0  0  0  0  0  0  0  0  0  0
  1  2  1  0  0  0  0
  2  3  1  0  0  0  0
  3  4  4  0  0  0  0
  4  5  4  0  0  0  0
  5  6  4  0  0  0  0
  6  7  4  0  0  0  0
  3  8  4  0  0  0  0
  7  8  4  0  0  0  0
  8  9  1  0  0  0  0
  7 10  1  0  0  0  0
 10 11  1  0  0  0  0
  6 12  1  0  0  0  0
  5 13  1  0  0  0  0
 13 14  2  0  0  0  0
  1 15  1  0  0  0  0
  1 16  1  0  0  0  0
  1 17  1  0  0  0  0
  4 18  1  0  0  0  0
  9 19  1  0  0  0  0
 11 20  1  0  0  0  0
 11 21  1  0  0  0  0
 11 22  1  0  0  0  0
 13 23  1  0  0  0  0
M  END
