 xtb: 6.7.1 (edcfbbe)
          04112514343D

 18 17  0     0  0            999 V2000
    2.0255    0.9230   -0.3794 C   0  0  0  0  0  0  0  0  0  0  0  0
    1.8935   -0.4979    0.1559 C   0  0  0  0  0  0  0  0  0  0  0  0
    0.5189   -0.8101    0.7501 C   0  0  0  0  0  0  0  0  0  0  0  0
   -0.6336   -0.7791   -0.2715 C   0  0  0  0  0  0  0  0  0  0  0  0
   -1.3812    0.5164   -0.2504 C   0  0  0  0  0  0  0  0  0  0  0  0
   -2.6729    0.6246   -0.0007 C   0  0  0  0  0  0  0  0  0  0  0  0
    1.3718    1.0802   -1.2331 H   0  0  0  0  0  0  0  0  0  0  0  0
    3.0483    1.1094   -0.6995 H   0  0  0  0  0  0  0  0  0  0  0  0
    1.7718    1.6457    0.3933 H   0  0  0  0  0  0  0  0  0  0  0  0
    2.1048   -1.2073   -0.6479 H   0  0  0  0  0  0  0  0  0  0  0  0
    2.6443   -0.6515    0.9350 H   0  0  0  0  0  0  0  0  0  0  0  0
    0.5659   -1.8064    1.1940 H   0  0  0  0  0  0  0  0  0  0  0  0
    0.3038   -0.1048    1.5560 H   0  0  0  0  0  0  0  0  0  0  0  0
   -0.2278   -0.9464   -1.2726 H   0  0  0  0  0  0  0  0  0  0  0  0
   -1.3340   -1.5887   -0.0587 H   0  0  0  0  0  0  0  0  0  0  0  0
   -0.7944    1.4043   -0.4410 H   0  0  0  0  0  0  0  0  0  0  0  0
   -3.1758    1.5767    0.0122 H   0  0  0  0  0  0  0  0  0  0  0  0
   -3.2860   -0.2397    0.1978 H   0  0  0  0  0  0  0  0  0  0  0  0
  1  2  1  0  0  0  0
  2  3  1  0  0  0  0
  3  4  1  0  0  0  0
  4  5  1  0  0  0  0
  5  6  2  0  0  0  0
  1  7  1  0  0  0  0
  1  8  1  0  0  0  0
  1  9  1  0  0  0  0
  2 10  1  0  0  0  0
  2 11  1  0  0  0  0
  3 12  1  0  0  0  0
  3 13  1  0  0  0  0
  4 14  1  0  0  0  0
  4 15  1  0  0  0  0
  5 16  1  0  0  0  0
  6 17  1  0  0  0  0
  6 18  1  0  0  0  0
M  END
