 xtb: 6.7.1 (edcfbbe)
          04112516013D

 20 19  0     0  0            999 V2000
   -2.0333   -1.2951   -0.3478 C   0  0  0  0  0  0  0  0  0  0  0  0
   -2.1898    0.2159   -0.4852 C   0  0  0  0  0  0  0  0  0  0  0  0
   -1.6624    0.9866    0.7300 C   0  0  0  0  0  0  0  0  0  0  0  0
   -0.1685    1.2920    0.6674 C   0  0  0  0  0  0  0  0  0  0  0  0
    0.6168    0.0958    0.7689 O   0  0  0  0  0  0  0  0  0  0  0  0
    1.4752   -0.2036   -0.1970 C   0  0  0  0  0  0  0  0  0  0  0  0
    1.6537    0.4843   -1.1821 O   0  0  0  0  0  0  0  0  0  0  0  0
    2.1932   -1.4901    0.0854 C   0  0  0  0  0  0  0  0  0  0  0  0
   -2.5839   -1.6546    0.5185 H   0  0  0  0  0  0  0  0  0  0  0  0
   -2.4195   -1.7953   -1.2328 H   0  0  0  0  0  0  0  0  0  0  0  0
   -0.9894   -1.5710   -0.2277 H   0  0  0  0  0  0  0  0  0  0  0  0
   -1.6691    0.5573   -1.3834 H   0  0  0  0  0  0  0  0  0  0  0  0
   -3.2495    0.4439   -0.6128 H   0  0  0  0  0  0  0  0  0  0  0  0
   -2.1704    1.9489    0.7990 H   0  0  0  0  0  0  0  0  0  0  0  0
   -1.8707    0.4227    1.6398 H   0  0  0  0  0  0  0  0  0  0  0  0
    0.0902    1.7971   -0.2688 H   0  0  0  0  0  0  0  0  0  0  0  0
    0.1235    1.9200    1.5134 H   0  0  0  0  0  0  0  0  0  0  0  0
    3.2606   -1.2921    0.1404 H   0  0  0  0  0  0  0  0  0  0  0  0
    2.0254   -2.1781   -0.7395 H   0  0  0  0  0  0  0  0  0  0  0  0
    1.8392   -1.9169    1.0175 H   0  0  0  0  0  0  0  0  0  0  0  0
  1  2  1  0  0  0  0
  2  3  1  0  0  0  0
  3  4  1  0  0  0  0
  4  5  1  0  0  0  0
  5  6  1  0  0  0  0
  6  7  2  0  0  0  0
  6  8  1  0  0  0  0
  1  9  1  0  0  0  0
  1 10  1  0  0  0  0
  1 11  1  0  0  0  0
  2 12  1  0  0  0  0
  2 13  1  0  0  0  0
  3 14  1  0  0  0  0
  3 15  1  0  0  0  0
  4 16  1  0  0  0  0
  4 17  1  0  0  0  0
  8 18  1  0  0  0  0
  8 19  1  0  0  0  0
  8 20  1  0  0  0  0
M  END
