 xtb: 6.7.1 (edcfbbe)
          04112514483D

 18 17  0     0  0            999 V2000
    2.6117   -0.3255    0.6646 C   0  0  0  0  0  0  0  0  0  0  0  0
    1.8796    0.4742   -0.4075 C   0  0  0  0  0  0  0  0  0  0  0  0
    0.4959   -0.0859   -0.7382 C   0  0  0  0  0  0  0  0  0  0  0  0
   -0.5030    0.0560    0.4155 C   0  0  0  0  0  0  0  0  0  0  0  0
   -1.8577   -0.4317    0.0139 C   0  0  0  0  0  0  0  0  0  0  0  0
   -2.9522    0.3060    0.0105 C   0  0  0  0  0  0  0  0  0  0  0  0
    2.6853   -1.3713    0.3743 H   0  0  0  0  0  0  0  0  0  0  0  0
    2.0939   -0.2671    1.6183 H   0  0  0  0  0  0  0  0  0  0  0  0
    3.6177    0.0637    0.8023 H   0  0  0  0  0  0  0  0  0  0  0  0
    1.7794    1.5120   -0.0817 H   0  0  0  0  0  0  0  0  0  0  0  0
    2.4797    0.4714   -1.3204 H   0  0  0  0  0  0  0  0  0  0  0  0
    0.0986    0.4452   -1.6068 H   0  0  0  0  0  0  0  0  0  0  0  0
    0.5880   -1.1404   -1.0083 H   0  0  0  0  0  0  0  0  0  0  0  0
   -0.1559   -0.5342    1.2668 H   0  0  0  0  0  0  0  0  0  0  0  0
   -0.5612    1.1019    0.7230 H   0  0  0  0  0  0  0  0  0  0  0  0
   -1.8994   -1.4667   -0.3014 H   0  0  0  0  0  0  0  0  0  0  0  0
   -3.9075   -0.0881   -0.2918 H   0  0  0  0  0  0  0  0  0  0  0  0
   -2.9387    1.3392    0.3172 H   0  0  0  0  0  0  0  0  0  0  0  0
  1  2  1  0  0  0  0
  2  3  1  0  0  0  0
  3  4  1  0  0  0  0
  4  5  1  0  0  0  0
  5  6  2  0  0  0  0
  1  7  1  0  0  0  0
  1  8  1  0  0  0  0
  1  9  1  0  0  0  0
  2 10  1  0  0  0  0
  2 11  1  0  0  0  0
  3 12  1  0  0  0  0
  3 13  1  0  0  0  0
  4 14  1  0  0  0  0
  4 15  1  0  0  0  0
  5 16  1  0  0  0  0
  6 17  1  0  0  0  0
  6 18  1  0  0  0  0
M  END
