 xtb: 6.7.1 (edcfbbe)
          04112516263D

 20 19  0     0  0            999 V2000
   -2.7286   -0.7918    0.3781 C   0  0  0  0  0  0  0  0  0  0  0  0
   -1.8861   -0.3170   -0.8008 C   0  0  0  0  0  0  0  0  0  0  0  0
   -1.2667    1.0644   -0.5827 C   0  0  0  0  0  0  0  0  0  0  0  0
   -0.3192    1.1237    0.6230 C   0  0  0  0  0  0  0  0  0  0  0  0
    0.7890    0.1123    0.4986 C   0  0  0  0  0  0  0  0  0  0  0  0
    0.9798   -0.8117    1.2623 O   0  0  0  0  0  0  0  0  0  0  0  0
    1.5549    0.3447   -0.5618 O   0  0  0  0  0  0  0  0  0  0  0  0
    2.6401   -0.5526   -0.8027 C   0  0  0  0  0  0  0  0  0  0  0  0
   -2.1019   -0.9984    1.2424 H   0  0  0  0  0  0  0  0  0  0  0  0
   -3.4642   -0.0383    0.6490 H   0  0  0  0  0  0  0  0  0  0  0  0
   -3.2534   -1.7079    0.1189 H   0  0  0  0  0  0  0  0  0  0  0  0
   -1.0939   -1.0459   -0.9903 H   0  0  0  0  0  0  0  0  0  0  0  0
   -2.5130   -0.2724   -1.6938 H   0  0  0  0  0  0  0  0  0  0  0  0
   -2.0620    1.7948   -0.4283 H   0  0  0  0  0  0  0  0  0  0  0  0
   -0.7098    1.3473   -1.4773 H   0  0  0  0  0  0  0  0  0  0  0  0
   -0.8547    0.9305    1.5511 H   0  0  0  0  0  0  0  0  0  0  0  0
    0.1332    2.1149    0.6683 H   0  0  0  0  0  0  0  0  0  0  0  0
    3.3526   -0.5053    0.0217 H   0  0  0  0  0  0  0  0  0  0  0  0
    3.0948   -0.2207   -1.7307 H   0  0  0  0  0  0  0  0  0  0  0  0
    2.2691   -1.5746   -0.8905 H   0  0  0  0  0  0  0  0  0  0  0  0
  1  2  1  0  0  0  0
  2  3  1  0  0  0  0
  3  4  1  0  0  0  0
  4  5  1  0  0  0  0
  5  6  2  0  0  0  0
  5  7  1  0  0  0  0
  7  8  1  0  0  0  0
  1  9  1  0  0  0  0
  1 10  1  0  0  0  0
  1 11  1  0  0  0  0
  2 12  1  0  0  0  0
  2 13  1  0  0  0  0
  3 14  1  0  0  0  0
  3 15  1  0  0  0  0
  4 16  1  0  0  0  0
  4 17  1  0  0  0  0
  8 18  1  0  0  0  0
  8 19  1  0  0  0  0
  8 20  1  0  0  0  0
M  END
