 xtb: 6.7.1 (edcfbbe)
          04112516113D

 17 16  0     0  0            999 V2000
   -3.4302   -0.9118   -0.2259 C   0  0  0  0  0  0  0  0  0  0  0  0
   -2.2527   -0.1761    0.4023 C   0  0  0  0  0  0  0  0  0  0  0  0
   -1.7559    0.9534   -0.5004 C   0  0  0  0  0  0  0  0  0  0  0  0
   -0.5720    1.7332    0.0889 C   0  0  0  0  0  0  0  0  0  0  0  0
    0.7846    1.3057   -0.4376 C   0  0  0  0  0  0  0  0  0  0  0  0
    1.3147   -0.5114    0.1253 Br  0  0  0  0  0  0  0  0  0  0  0  0
   -4.2536   -0.2261   -0.4138 H   0  0  0  0  0  0  0  0  0  0  0  0
   -3.7818   -1.6999    0.4349 H   0  0  0  0  0  0  0  0  0  0  0  0
   -3.1368   -1.3632   -1.1710 H   0  0  0  0  0  0  0  0  0  0  0  0
   -2.5601    0.2432    1.3632 H   0  0  0  0  0  0  0  0  0  0  0  0
   -1.4490   -0.8880    0.5923 H   0  0  0  0  0  0  0  0  0  0  0  0
   -1.4758    0.5394   -1.4717 H   0  0  0  0  0  0  0  0  0  0  0  0
   -2.5858    1.6422   -0.6692 H   0  0  0  0  0  0  0  0  0  0  0  0
   -0.6682    2.7905   -0.1698 H   0  0  0  0  0  0  0  0  0  0  0  0
   -0.5865    1.6576    1.1780 H   0  0  0  0  0  0  0  0  0  0  0  0
    1.5765    1.9522   -0.0630 H   0  0  0  0  0  0  0  0  0  0  0  0
    0.8059    1.2836   -1.5259 H   0  0  0  0  0  0  0  0  0  0  0  0
  1  2  1  0  0  0  0
  2  3  1  0  0  0  0
  3  4  1  0  0  0  0
  4  5  1  0  0  0  0
  5  6  1  0  0  0  0
  1  7  1  0  0  0  0
  1  8  1  0  0  0  0
  1  9  1  0  0  0  0
  2 10  1  0  0  0  0
  2 11  1  0  0  0  0
  3 12  1  0  0  0  0
  3 13  1  0  0  0  0
  4 14  1  0  0  0  0
  4 15  1  0  0  0  0
  5 16  1  0  0  0  0
  5 17  1  0  0  0  0
M  END
