 xtb: 6.7.1 (edcfbbe)
          04112514233D

 23 22  0     0  0            999 V2000
    1.6781    0.7175   -1.4344 C   0  0  0  0  0  0  0  0  0  0  0  0
    2.3160   -0.2231   -0.4156 C   0  0  0  0  0  0  0  0  0  0  0  0
    2.9723    0.5711    0.7126 C   0  0  0  0  0  0  0  0  0  0  0  0
    1.3151   -1.2583    0.1200 C   0  0  0  0  0  0  0  0  0  0  0  0
    0.0663   -0.6854    0.7778 C   0  0  0  0  0  0  0  0  0  0  0  0
   -0.8760   -0.3161   -0.2401 O   0  0  0  0  0  0  0  0  0  0  0  0
   -2.0335    0.1979    0.1496 C   0  0  0  0  0  0  0  0  0  0  0  0
   -2.3182    0.3810    1.3170 O   0  0  0  0  0  0  0  0  0  0  0  0
   -2.9272    0.5049   -1.0144 C   0  0  0  0  0  0  0  0  0  0  0  0
    1.1891    0.1517   -2.2229 H   0  0  0  0  0  0  0  0  0  0  0  0
    2.4362    1.3552   -1.8830 H   0  0  0  0  0  0  0  0  0  0  0  0
    0.9359    1.3543   -0.9597 H   0  0  0  0  0  0  0  0  0  0  0  0
    3.1028   -0.7913   -0.9247 H   0  0  0  0  0  0  0  0  0  0  0  0
    2.2486    1.2040    1.2204 H   0  0  0  0  0  0  0  0  0  0  0  0
    3.7536    1.2120    0.3117 H   0  0  0  0  0  0  0  0  0  0  0  0
    3.4185   -0.0978    1.4445 H   0  0  0  0  0  0  0  0  0  0  0  0
    1.8214   -1.8829    0.8567 H   0  0  0  0  0  0  0  0  0  0  0  0
    0.9882   -1.8979   -0.7013 H   0  0  0  0  0  0  0  0  0  0  0  0
   -0.4104   -1.4318    1.4225 H   0  0  0  0  0  0  0  0  0  0  0  0
    0.2821    0.1933    1.3922 H   0  0  0  0  0  0  0  0  0  0  0  0
   -3.7415    1.1446   -0.6909 H   0  0  0  0  0  0  0  0  0  0  0  0
   -3.3309   -0.4298   -1.3967 H   0  0  0  0  0  0  0  0  0  0  0  0
   -2.3513    0.9758   -1.8050 H   0  0  0  0  0  0  0  0  0  0  0  0
  1  2  1  0  0  0  0
  2  3  1  0  0  0  0
  2  4  1  0  0  0  0
  4  5  1  0  0  0  0
  5  6  1  0  0  0  0
  6  7  1  0  0  0  0
  7  8  2  0  0  0  0
  7  9  1  0  0  0  0
  1 10  1  0  0  0  0
  1 11  1  0  0  0  0
  1 12  1  0  0  0  0
  2 13  1  0  0  0  0
  3 14  1  0  0  0  0
  3 15  1  0  0  0  0
  3 16  1  0  0  0  0
  4 17  1  0  0  0  0
  4 18  1  0  0  0  0
  5 19  1  0  0  0  0
  5 20  1  0  0  0  0
  9 21  1  0  0  0  0
  9 22  1  0  0  0  0
  9 23  1  0  0  0  0
M  END
