 xtb: 6.7.1 (edcfbbe)
          04112516053D

 23 23  0     0  0            999 V2000
   -3.9896   -0.7909    0.0017 C   0  0  0  0  0  0  0  0  0  0  0  0
   -3.1020    0.3148    0.0020 O   0  0  0  0  0  0  0  0  0  0  0  0
   -1.7632    0.0672    0.0006 C   0  0  0  0  0  0  0  0  0  0  0  0
   -1.1674   -1.1746   -0.0109 C   0  0  0  0  0  0  0  0  0  0  0  0
    0.2259   -1.2922   -0.0087 C   0  0  0  0  0  0  0  0  0  0  0  0
    1.0324   -0.1410    0.0078 C   0  0  0  0  0  0  0  0  0  0  0  0
    0.4566    1.1277    0.0113 C   0  0  0  0  0  0  0  0  0  0  0  0
   -0.9551    1.2158    0.0075 C   0  0  0  0  0  0  0  0  0  0  0  0
   -1.5007    2.4416    0.0119 O   0  0  0  0  0  0  0  0  0  0  0  0
    1.0282    2.3537    0.0294 O   0  0  0  0  0  0  0  0  0  0  0  0
    2.4215    2.5837   -0.0875 C   0  0  0  0  0  0  0  0  0  0  0  0
    2.7560   -0.3722    0.0394 Cl  0  0  0  0  0  0  0  0  0  0  0  0
    0.7778   -2.6367   -0.0239 C   0  0  0  0  0  0  0  0  0  0  0  0
    0.1135   -3.6572   -0.0293 O   0  0  0  0  0  0  0  0  0  0  0  0
   -4.9854   -0.3552    0.0075 H   0  0  0  0  0  0  0  0  0  0  0  0
   -3.8475   -1.4063    0.8922 H   0  0  0  0  0  0  0  0  0  0  0  0
   -3.8555   -1.4001   -0.8943 H   0  0  0  0  0  0  0  0  0  0  0  0
   -1.7334   -2.0917   -0.0211 H   0  0  0  0  0  0  0  0  0  0  0  0
   -2.4730    2.3670    0.0107 H   0  0  0  0  0  0  0  0  0  0  0  0
    2.9667    2.2091    0.7799 H   0  0  0  0  0  0  0  0  0  0  0  0
    2.5065    3.6681   -0.1290 H   0  0  0  0  0  0  0  0  0  0  0  0
    2.8268    2.1503   -1.0026 H   0  0  0  0  0  0  0  0  0  0  0  0
    1.8768   -2.7058   -0.0331 H   0  0  0  0  0  0  0  0  0  0  0  0
  1  2  1  0  0  0  0
  2  3  1  0  0  0  0
  3  4  4  0  0  0  0
  4  5  4  0  0  0  0
  5  6  4  0  0  0  0
  6  7  4  0  0  0  0
  3  8  4  0  0  0  0
  7  8  4  0  0  0  0
  8  9  1  0  0  0  0
  7 10  1  0  0  0  0
 10 11  1  0  0  0  0
  6 12  1  0  0  0  0
  5 13  1  0  0  0  0
 13 14  2  0  0  0  0
  1 15  1  0  0  0  0
  1 16  1  0  0  0  0
  1 17  1  0  0  0  0
  4 18  1  0  0  0  0
  9 19  1  0  0  0  0
 11 20  1  0  0  0  0
 11 21  1  0  0  0  0
 11 22  1  0  0  0  0
 13 23  1  0  0  0  0
M  END
