 xtb: 6.7.1 (edcfbbe)
          04112516293D

 20 19  0     0  0            999 V2000
   -3.9641   -0.4292    0.1195 C   0  0  0  0  0  0  0  0  0  0  0  0
   -2.6497    0.2476    0.4898 C   0  0  0  0  0  0  0  0  0  0  0  0
   -1.5345   -0.1175   -0.4890 C   0  0  0  0  0  0  0  0  0  0  0  0
   -0.2160    0.5714   -0.1407 C   0  0  0  0  0  0  0  0  0  0  0  0
    0.8501   -0.3779   -0.2937 O   0  0  0  0  0  0  0  0  0  0  0  0
    2.0796    0.0209    0.0069 C   0  0  0  0  0  0  0  0  0  0  0  0
    2.3379    1.1541    0.3615 O   0  0  0  0  0  0  0  0  0  0  0  0
    3.0796   -1.0866   -0.1309 C   0  0  0  0  0  0  0  0  0  0  0  0
   -4.7335   -0.1860    0.8474 H   0  0  0  0  0  0  0  0  0  0  0  0
   -4.3007   -0.0997   -0.8603 H   0  0  0  0  0  0  0  0  0  0  0  0
   -3.8421   -1.5093    0.0954 H   0  0  0  0  0  0  0  0  0  0  0  0
   -2.7855    1.3308    0.4971 H   0  0  0  0  0  0  0  0  0  0  0  0
   -2.3558   -0.0586    1.4957 H   0  0  0  0  0  0  0  0  0  0  0  0
   -1.3648   -1.1948   -0.4587 H   0  0  0  0  0  0  0  0  0  0  0  0
   -1.8347    0.1445   -1.5035 H   0  0  0  0  0  0  0  0  0  0  0  0
   -0.0085    1.4337   -0.7815 H   0  0  0  0  0  0  0  0  0  0  0  0
   -0.2093    0.9200    0.8979 H   0  0  0  0  0  0  0  0  0  0  0  0
    2.5933   -1.9817   -0.5022 H   0  0  0  0  0  0  0  0  0  0  0  0
    3.5250   -1.2747    0.8431 H   0  0  0  0  0  0  0  0  0  0  0  0
    3.8729   -0.7719   -0.8034 H   0  0  0  0  0  0  0  0  0  0  0  0
  1  2  1  0  0  0  0
  2  3  1  0  0  0  0
  3  4  1  0  0  0  0
  4  5  1  0  0  0  0
  5  6  1  0  0  0  0
  6  7  2  0  0  0  0
  6  8  1  0  0  0  0
  1  9  1  0  0  0  0
  1 10  1  0  0  0  0
  1 11  1  0  0  0  0
  2 12  1  0  0  0  0
  2 13  1  0  0  0  0
  3 14  1  0  0  0  0
  3 15  1  0  0  0  0
  4 16  1  0  0  0  0
  4 17  1  0  0  0  0
  8 18  1  0  0  0  0
  8 19  1  0  0  0  0
  8 20  1  0  0  0  0
M  END
