 xtb: 6.7.1 (edcfbbe)
          04112516333D

 17 16  0     0  0            999 V2000
   -3.6725   -0.9140    0.1420 C   0  0  0  0  0  0  0  0  0  0  0  0
   -2.5702    0.0668    0.5245 C   0  0  0  0  0  0  0  0  0  0  0  0
   -1.6984    0.4181   -0.6802 C   0  0  0  0  0  0  0  0  0  0  0  0
   -0.6710    1.5141   -0.3974 C   0  0  0  0  0  0  0  0  0  0  0  0
    0.3900    1.1281    0.6148 C   0  0  0  0  0  0  0  0  0  0  0  0
    1.4954   -0.3833   -0.0125 Br  0  0  0  0  0  0  0  0  0  0  0  0
   -4.2793   -1.1632    1.0089 H   0  0  0  0  0  0  0  0  0  0  0  0
   -3.2433   -1.8322   -0.2527 H   0  0  0  0  0  0  0  0  0  0  0  0
   -4.3194   -0.4836   -0.6190 H   0  0  0  0  0  0  0  0  0  0  0  0
   -3.0186    0.9787    0.9258 H   0  0  0  0  0  0  0  0  0  0  0  0
   -1.9605   -0.3822    1.3111 H   0  0  0  0  0  0  0  0  0  0  0  0
   -1.1837   -0.4807   -1.0283 H   0  0  0  0  0  0  0  0  0  0  0  0
   -2.3438    0.7596   -1.4919 H   0  0  0  0  0  0  0  0  0  0  0  0
   -0.1849    1.7962   -1.3340 H   0  0  0  0  0  0  0  0  0  0  0  0
   -1.1809    2.3971   -0.0036 H   0  0  0  0  0  0  0  0  0  0  0  0
   -0.0377    0.8013    1.5596 H   0  0  0  0  0  0  0  0  0  0  0  0
    1.0925    1.9415    0.7869 H   0  0  0  0  0  0  0  0  0  0  0  0
  1  2  1  0  0  0  0
  2  3  1  0  0  0  0
  3  4  1  0  0  0  0
  4  5  1  0  0  0  0
  5  6  1  0  0  0  0
  1  7  1  0  0  0  0
  1  8  1  0  0  0  0
  1  9  1  0  0  0  0
  2 10  1  0  0  0  0
  2 11  1  0  0  0  0
  3 12  1  0  0  0  0
  3 13  1  0  0  0  0
  4 14  1  0  0  0  0
  4 15  1  0  0  0  0
  5 16  1  0  0  0  0
  5 17  1  0  0  0  0
M  END
