 xtb: 6.7.1 (edcfbbe)
          04112514523D

 17 16  0     0  0            999 V2000
    2.4395   -1.3084   -0.1008 C   0  0  0  0  0  0  0  0  0  0  0  0
    2.5652    0.1718    0.2393 C   0  0  0  0  0  0  0  0  0  0  0  0
    1.3879    0.9796   -0.3228 C   0  0  0  0  0  0  0  0  0  0  0  0
    0.1075    0.5991    0.3199 C   0  0  0  0  0  0  0  0  0  0  0  0
   -1.0111    0.2567   -0.3313 C   0  0  0  0  0  0  0  0  0  0  0  0
   -2.2235   -0.0998    0.3661 C   0  0  0  0  0  0  0  0  0  0  0  0
   -3.2742   -0.4203   -0.1608 O   0  0  0  0  0  0  0  0  0  0  0  0
    1.5256   -1.7226    0.3198 H   0  0  0  0  0  0  0  0  0  0  0  0
    2.4126   -1.4513   -1.1785 H   0  0  0  0  0  0  0  0  0  0  0  0
    3.2854   -1.8633    0.2972 H   0  0  0  0  0  0  0  0  0  0  0  0
    3.4930    0.5628   -0.1800 H   0  0  0  0  0  0  0  0  0  0  0  0
    2.6068    0.2959    1.3227 H   0  0  0  0  0  0  0  0  0  0  0  0
    1.3257    0.8482   -1.4034 H   0  0  0  0  0  0  0  0  0  0  0  0
    1.5665    2.0382   -0.1143 H   0  0  0  0  0  0  0  0  0  0  0  0
    0.1043    0.6030    1.4034 H   0  0  0  0  0  0  0  0  0  0  0  0
   -1.0535    0.2329   -1.4110 H   0  0  0  0  0  0  0  0  0  0  0  0
   -2.1510   -0.0699    1.4696 H   0  0  0  0  0  0  0  0  0  0  0  0
  1  2  1  0  0  0  0
  2  3  1  0  0  0  0
  3  4  1  0  0  0  0
  4  5  2  0  0  0  0
  5  6  1  0  0  0  0
  6  7  2  0  0  0  0
  1  8  1  0  0  0  0
  1  9  1  0  0  0  0
  1 10  1  0  0  0  0
  2 11  1  0  0  0  0
  2 12  1  0  0  0  0
  3 13  1  0  0  0  0
  3 14  1  0  0  0  0
  4 15  1  0  0  0  0
  5 16  1  0  0  0  0
  6 17  1  0  0  0  0
M  END
