 xtb: 6.7.1 (edcfbbe)
          04112516053D

 23 23  0     0  0            999 V2000
   -3.9953    1.1241    0.0182 C   0  0  0  0  0  0  0  0  0  0  0  0
   -3.2432   -0.0798   -0.0767 O   0  0  0  0  0  0  0  0  0  0  0  0
   -1.8919   -0.0708   -0.0244 C   0  0  0  0  0  0  0  0  0  0  0  0
   -1.2886   -1.3149   -0.1340 C   0  0  0  0  0  0  0  0  0  0  0  0
    0.0946   -1.4946   -0.0808 C   0  0  0  0  0  0  0  0  0  0  0  0
    0.9146   -0.3641    0.0681 C   0  0  0  0  0  0  0  0  0  0  0  0
    0.3405    0.8977    0.1368 C   0  0  0  0  0  0  0  0  0  0  0  0
   -1.0614    1.0568    0.1192 C   0  0  0  0  0  0  0  0  0  0  0  0
   -1.5566    2.2990    0.2471 O   0  0  0  0  0  0  0  0  0  0  0  0
    1.0377    2.0739    0.2911 O   0  0  0  0  0  0  0  0  0  0  0  0
    1.9393    2.4422   -0.7537 C   0  0  0  0  0  0  0  0  0  0  0  0
    2.6279   -0.5511    0.2162 Cl  0  0  0  0  0  0  0  0  0  0  0  0
    0.6071   -2.8525   -0.1723 C   0  0  0  0  0  0  0  0  0  0  0  0
    1.7687   -3.2087   -0.1300 O   0  0  0  0  0  0  0  0  0  0  0  0
   -5.0318    0.8040   -0.0602 H   0  0  0  0  0  0  0  0  0  0  0  0
   -3.7547    1.8067   -0.7968 H   0  0  0  0  0  0  0  0  0  0  0  0
   -3.8308    1.6199    0.9749 H   0  0  0  0  0  0  0  0  0  0  0  0
   -1.9342   -2.1705   -0.2489 H   0  0  0  0  0  0  0  0  0  0  0  0
   -0.8113    2.9192    0.3778 H   0  0  0  0  0  0  0  0  0  0  0  0
    1.4193    2.4726   -1.7136 H   0  0  0  0  0  0  0  0  0  0  0  0
    2.7833    1.7575   -0.8178 H   0  0  0  0  0  0  0  0  0  0  0  0
    2.2904    3.4347   -0.4838 H   0  0  0  0  0  0  0  0  0  0  0  0
   -0.1905   -3.6066   -0.2917 H   0  0  0  0  0  0  0  0  0  0  0  0
  1  2  1  0  0  0  0
  2  3  1  0  0  0  0
  3  4  4  0  0  0  0
  4  5  4  0  0  0  0
  5  6  4  0  0  0  0
  6  7  4  0  0  0  0
  3  8  4  0  0  0  0
  7  8  4  0  0  0  0
  8  9  1  0  0  0  0
  7 10  1  0  0  0  0
 10 11  1  0  0  0  0
  6 12  1  0  0  0  0
  5 13  1  0  0  0  0
 13 14  2  0  0  0  0
  1 15  1  0  0  0  0
  1 16  1  0  0  0  0
  1 17  1  0  0  0  0
  4 18  1  0  0  0  0
  9 19  1  0  0  0  0
 11 20  1  0  0  0  0
 11 21  1  0  0  0  0
 11 22  1  0  0  0  0
 13 23  1  0  0  0  0
M  END
