 xtb: 6.7.1 (edcfbbe)
          04112516113D

 17 16  0     0  0            999 V2000
   -3.4221   -0.5277   -0.5261 C   0  0  0  0  0  0  0  0  0  0  0  0
   -2.2666   -0.4858    0.4674 C   0  0  0  0  0  0  0  0  0  0  0  0
   -1.6672    0.9152    0.6120 C   0  0  0  0  0  0  0  0  0  0  0  0
   -0.8221    1.3471   -0.5968 C   0  0  0  0  0  0  0  0  0  0  0  0
    0.6694    1.3445   -0.3242 C   0  0  0  0  0  0  0  0  0  0  0  0
    1.3651   -0.4610    0.0732 Br  0  0  0  0  0  0  0  0  0  0  0  0
   -4.2203    0.1388   -0.2068 H   0  0  0  0  0  0  0  0  0  0  0  0
   -3.8230   -1.5359   -0.5942 H   0  0  0  0  0  0  0  0  0  0  0  0
   -3.1008   -0.2234   -1.5193 H   0  0  0  0  0  0  0  0  0  0  0  0
   -2.6309   -0.8111    1.4441 H   0  0  0  0  0  0  0  0  0  0  0  0
   -1.4914   -1.1892    0.1585 H   0  0  0  0  0  0  0  0  0  0  0  0
   -2.4828    1.6243    0.7615 H   0  0  0  0  0  0  0  0  0  0  0  0
   -1.0472    0.9413    1.5109 H   0  0  0  0  0  0  0  0  0  0  0  0
   -1.0331    0.6999   -1.4494 H   0  0  0  0  0  0  0  0  0  0  0  0
   -1.0770    2.3686   -0.8873 H   0  0  0  0  0  0  0  0  0  0  0  0
    0.9234    1.9460    0.5470 H   0  0  0  0  0  0  0  0  0  0  0  0
    1.2377    1.6819   -1.1893 H   0  0  0  0  0  0  0  0  0  0  0  0
  1  2  1  0  0  0  0
  2  3  1  0  0  0  0
  3  4  1  0  0  0  0
  4  5  1  0  0  0  0
  5  6  1  0  0  0  0
  1  7  1  0  0  0  0
  1  8  1  0  0  0  0
  1  9  1  0  0  0  0
  2 10  1  0  0  0  0
  2 11  1  0  0  0  0
  3 12  1  0  0  0  0
  3 13  1  0  0  0  0
  4 14  1  0  0  0  0
  4 15  1  0  0  0  0
  5 16  1  0  0  0  0
  5 17  1  0  0  0  0
M  END
