 xtb: 6.7.1 (edcfbbe)
          04112516053D

 26 26  0     0  0            999 V2000
   -4.6734   -0.9685    0.3071 C   0  0  0  0  0  0  0  0  0  0  0  0
   -3.1487   -0.9763    0.2762 C   0  0  0  0  0  0  0  0  0  0  0  0
   -2.6003    0.4116   -0.0412 C   0  0  0  0  0  0  0  0  0  0  0  0
   -1.0993    0.5296   -0.0894 C   0  0  0  0  0  0  0  0  0  0  0  0
   -0.5337    1.7744   -0.3462 C   0  0  0  0  0  0  0  0  0  0  0  0
    0.8359    1.9250   -0.4011 C   0  0  0  0  0  0  0  0  0  0  0  0
    1.6986    0.8523   -0.2045 C   0  0  0  0  0  0  0  0  0  0  0  0
    1.1451   -0.4062    0.0545 C   0  0  0  0  0  0  0  0  0  0  0  0
   -0.2424   -0.5380    0.1061 C   0  0  0  0  0  0  0  0  0  0  0  0
    1.8181   -1.5809    0.2748 O   0  0  0  0  0  0  0  0  0  0  0  0
    3.2326   -1.6240    0.2498 C   0  0  0  0  0  0  0  0  0  0  0  0
    3.0575    1.0370   -0.2653 O   0  0  0  0  0  0  0  0  0  0  0  0
   -5.0365   -0.2796    1.0666 H   0  0  0  0  0  0  0  0  0  0  0  0
   -5.0730   -0.6587   -0.6559 H   0  0  0  0  0  0  0  0  0  0  0  0
   -5.0548   -1.9610    0.5337 H   0  0  0  0  0  0  0  0  0  0  0  0
   -2.8087   -1.6858   -0.4803 H   0  0  0  0  0  0  0  0  0  0  0  0
   -2.7707   -1.3053    1.2460 H   0  0  0  0  0  0  0  0  0  0  0  0
   -2.9727    1.1178    0.7069 H   0  0  0  0  0  0  0  0  0  0  0  0
   -2.9978    0.7356   -1.0078 H   0  0  0  0  0  0  0  0  0  0  0  0
   -1.1699    2.6318   -0.5043 H   0  0  0  0  0  0  0  0  0  0  0  0
    1.2588    2.8992   -0.6017 H   0  0  0  0  0  0  0  0  0  0  0  0
   -0.6121   -1.5293    0.3090 H   0  0  0  0  0  0  0  0  0  0  0  0
    3.6652   -0.9860    1.0226 H   0  0  0  0  0  0  0  0  0  0  0  0
    3.6238   -1.3289   -0.7255 H   0  0  0  0  0  0  0  0  0  0  0  0
    3.4823   -2.6647    0.4480 H   0  0  0  0  0  0  0  0  0  0  0  0
    3.2494    1.9678   -0.4532 H   0  0  0  0  0  0  0  0  0  0  0  0
  1  2  1  0  0  0  0
  2  3  1  0  0  0  0
  3  4  1  0  0  0  0
  4  5  4  0  0  0  0
  5  6  4  0  0  0  0
  6  7  4  0  0  0  0
  7  8  4  0  0  0  0
  4  9  4  0  0  0  0
  8  9  4  0  0  0  0
  8 10  1  0  0  0  0
 10 11  1  0  0  0  0
  7 12  1  0  0  0  0
  1 13  1  0  0  0  0
  1 14  1  0  0  0  0
  1 15  1  0  0  0  0
  2 16  1  0  0  0  0
  2 17  1  0  0  0  0
  3 18  1  0  0  0  0
  3 19  1  0  0  0  0
  5 20  1  0  0  0  0
  6 21  1  0  0  0  0
  9 22  1  0  0  0  0
 11 23  1  0  0  0  0
 11 24  1  0  0  0  0
 11 25  1  0  0  0  0
 12 26  1  0  0  0  0
M  END
