 xtb: 6.7.1 (edcfbbe)
          04112516293D

 20 19  0     0  0            999 V2000
   -3.3640   -0.1053   -0.8548 C   0  0  0  0  0  0  0  0  0  0  0  0
   -2.8551    0.3694    0.5020 C   0  0  0  0  0  0  0  0  0  0  0  0
   -1.5020   -0.2325    0.8799 C   0  0  0  0  0  0  0  0  0  0  0  0
   -0.3753    0.2467   -0.0246 C   0  0  0  0  0  0  0  0  0  0  0  0
    0.8622   -0.2411    0.5142 O   0  0  0  0  0  0  0  0  0  0  0  0
    1.9716   -0.0143   -0.1786 C   0  0  0  0  0  0  0  0  0  0  0  0
    1.9792    0.5753   -1.2407 O   0  0  0  0  0  0  0  0  0  0  0  0
    3.1826   -0.5586    0.5159 C   0  0  0  0  0  0  0  0  0  0  0  0
   -2.7160    0.2368   -1.6573 H   0  0  0  0  0  0  0  0  0  0  0  0
   -3.4088   -1.1912   -0.8852 H   0  0  0  0  0  0  0  0  0  0  0  0
   -4.3623    0.2841   -1.0370 H   0  0  0  0  0  0  0  0  0  0  0  0
   -2.7778    1.4583    0.5005 H   0  0  0  0  0  0  0  0  0  0  0  0
   -3.5781    0.0879    1.2691 H   0  0  0  0  0  0  0  0  0  0  0  0
   -1.2507    0.0493    1.9035 H   0  0  0  0  0  0  0  0  0  0  0  0
   -1.5529   -1.3211    0.8337 H   0  0  0  0  0  0  0  0  0  0  0  0
   -0.4762   -0.1267   -1.0481 H   0  0  0  0  0  0  0  0  0  0  0  0
   -0.3320    1.3407   -0.0632 H   0  0  0  0  0  0  0  0  0  0  0  0
    3.6588    0.2534    1.0615 H   0  0  0  0  0  0  0  0  0  0  0  0
    3.8867   -0.9333   -0.2206 H   0  0  0  0  0  0  0  0  0  0  0  0
    2.8898   -1.3349    1.2144 H   0  0  0  0  0  0  0  0  0  0  0  0
  1  2  1  0  0  0  0
  2  3  1  0  0  0  0
  3  4  1  0  0  0  0
  4  5  1  0  0  0  0
  5  6  1  0  0  0  0
  6  7  2  0  0  0  0
  6  8  1  0  0  0  0
  1  9  1  0  0  0  0
  1 10  1  0  0  0  0
  1 11  1  0  0  0  0
  2 12  1  0  0  0  0
  2 13  1  0  0  0  0
  3 14  1  0  0  0  0
  3 15  1  0  0  0  0
  4 16  1  0  0  0  0
  4 17  1  0  0  0  0
  8 18  1  0  0  0  0
  8 19  1  0  0  0  0
  8 20  1  0  0  0  0
M  END
