 xtb: 6.7.1 (edcfbbe)
          04112516093D

 19 18  0     0  0            999 V2000
    2.9743    0.0667   -0.6400 C   0  0  0  0  0  0  0  0  0  0  0  0
    1.6180   -0.3753   -0.1035 C   0  0  0  0  0  0  0  0  0  0  0  0
    0.8698    0.7833    0.5518 C   0  0  0  0  0  0  0  0  0  0  0  0
   -0.4855    0.3493    1.1295 C   0  0  0  0  0  0  0  0  0  0  0  0
   -1.3974   -0.2071    0.0629 C   0  0  0  0  0  0  0  0  0  0  0  0
   -1.6169   -1.3995   -0.0377 O   0  0  0  0  0  0  0  0  0  0  0  0
   -2.0205    0.8026   -0.8537 C   0  0  0  0  0  0  0  0  0  0  0  0
    2.8530    0.8479   -1.3870 H   0  0  0  0  0  0  0  0  0  0  0  0
    3.5936    0.4544    0.1654 H   0  0  0  0  0  0  0  0  0  0  0  0
    3.4926   -0.7704   -1.1002 H   0  0  0  0  0  0  0  0  0  0  0  0
    1.7569   -1.1745    0.6278 H   0  0  0  0  0  0  0  0  0  0  0  0
    1.0169   -0.7852   -0.9192 H   0  0  0  0  0  0  0  0  0  0  0  0
    0.7242    1.5803   -0.1788 H   0  0  0  0  0  0  0  0  0  0  0  0
    1.4755    1.1856    1.3657 H   0  0  0  0  0  0  0  0  0  0  0  0
   -0.3226   -0.4250    1.8812 H   0  0  0  0  0  0  0  0  0  0  0  0
   -0.9650    1.2105    1.5945 H   0  0  0  0  0  0  0  0  0  0  0  0
   -1.2598    1.4629   -1.2597 H   0  0  0  0  0  0  0  0  0  0  0  0
   -2.5519    0.3040   -1.6594 H   0  0  0  0  0  0  0  0  0  0  0  0
   -2.7199    1.4091   -0.2826 H   0  0  0  0  0  0  0  0  0  0  0  0
  1  2  1  0  0  0  0
  2  3  1  0  0  0  0
  3  4  1  0  0  0  0
  4  5  1  0  0  0  0
  5  6  2  0  0  0  0
  5  7  1  0  0  0  0
  1  8  1  0  0  0  0
  1  9  1  0  0  0  0
  1 10  1  0  0  0  0
  2 11  1  0  0  0  0
  2 12  1  0  0  0  0
  3 13  1  0  0  0  0
  3 14  1  0  0  0  0
  4 15  1  0  0  0  0
  4 16  1  0  0  0  0
  7 17  1  0  0  0  0
  7 18  1  0  0  0  0
  7 19  1  0  0  0  0
M  END
