 xtb: 6.7.1 (edcfbbe)
          04112514243D

 14 13  0     0  0            999 V2000
    0.7937    1.4133    0.7568 C   0  0  0  0  0  0  0  0  0  0  0  0
   -0.5840    1.1962    0.1242 C   0  0  0  0  0  0  0  0  0  0  0  0
   -0.9902   -0.2673    0.0860 C   0  0  0  0  0  0  0  0  0  0  0  0
   -2.6871   -0.4247   -0.4899 Cl  0  0  0  0  0  0  0  0  0  0  0  0
    1.9590    0.8903   -0.0673 C   0  0  0  0  0  0  0  0  0  0  0  0
    2.1966   -0.8875    0.1272 Cl  0  0  0  0  0  0  0  0  0  0  0  0
    0.8196    0.9666    1.7511 H   0  0  0  0  0  0  0  0  0  0  0  0
    0.9414    2.4886    0.8679 H   0  0  0  0  0  0  0  0  0  0  0  0
   -0.5916    1.5999   -0.8892 H   0  0  0  0  0  0  0  0  0  0  0  0
   -1.3223    1.7461    0.7099 H   0  0  0  0  0  0  0  0  0  0  0  0
   -0.3844   -0.8482   -0.6053 H   0  0  0  0  0  0  0  0  0  0  0  0
   -0.9608   -0.7180    1.0768 H   0  0  0  0  0  0  0  0  0  0  0  0
    1.8100    1.0623   -1.1314 H   0  0  0  0  0  0  0  0  0  0  0  0
    2.8965    1.3377    0.2566 H   0  0  0  0  0  0  0  0  0  0  0  0
  1  2  1  0  0  0  0
  2  3  1  0  0  0  0
  3  4  1  0  0  0  0
  1  5  1  0  0  0  0
  5  6  1  0  0  0  0
  1  7  1  0  0  0  0
  1  8  1  0  0  0  0
  2  9  1  0  0  0  0
  2 10  1  0  0  0  0
  3 11  1  0  0  0  0
  3 12  1  0  0  0  0
  5 13  1  0  0  0  0
  5 14  1  0  0  0  0
M  END
