 xtb: 6.7.1 (edcfbbe)
          04112516053D

 23 23  0     0  0            999 V2000
   -3.9722   -0.7312   -0.1110 C   0  0  0  0  0  0  0  0  0  0  0  0
   -3.0730    0.3587    0.0156 O   0  0  0  0  0  0  0  0  0  0  0  0
   -1.7481    0.0990    0.0264 C   0  0  0  0  0  0  0  0  0  0  0  0
   -1.1671   -1.1479   -0.0754 C   0  0  0  0  0  0  0  0  0  0  0  0
    0.2244   -1.3180   -0.0370 C   0  0  0  0  0  0  0  0  0  0  0  0
    1.0480   -0.1952    0.0883 C   0  0  0  0  0  0  0  0  0  0  0  0
    0.4878    1.0758    0.1563 C   0  0  0  0  0  0  0  0  0  0  0  0
   -0.9067    1.2280    0.1491 C   0  0  0  0  0  0  0  0  0  0  0  0
   -1.4558    2.4413    0.2638 O   0  0  0  0  0  0  0  0  0  0  0  0
    1.2164    2.2380    0.2913 O   0  0  0  0  0  0  0  0  0  0  0  0
    1.9861    2.6288   -0.8477 C   0  0  0  0  0  0  0  0  0  0  0  0
    2.7654   -0.3680    0.2108 Cl  0  0  0  0  0  0  0  0  0  0  0  0
    0.7558   -2.6685   -0.1263 C   0  0  0  0  0  0  0  0  0  0  0  0
    0.0811   -3.6755   -0.2232 O   0  0  0  0  0  0  0  0  0  0  0  0
   -4.9623   -0.2829   -0.0953 H   0  0  0  0  0  0  0  0  0  0  0  0
   -3.8656   -1.4263    0.7246 H   0  0  0  0  0  0  0  0  0  0  0  0
   -3.8180   -1.2589   -1.0546 H   0  0  0  0  0  0  0  0  0  0  0  0
   -1.7559   -2.0456   -0.1743 H   0  0  0  0  0  0  0  0  0  0  0  0
   -0.7506    3.1037    0.4033 H   0  0  0  0  0  0  0  0  0  0  0  0
    2.4377    3.5779   -0.5719 H   0  0  0  0  0  0  0  0  0  0  0  0
    1.3415    2.7554   -1.7205 H   0  0  0  0  0  0  0  0  0  0  0  0
    2.7663    1.9025   -1.0749 H   0  0  0  0  0  0  0  0  0  0  0  0
    1.8550   -2.7444   -0.1036 H   0  0  0  0  0  0  0  0  0  0  0  0
  1  2  1  0  0  0  0
  2  3  1  0  0  0  0
  3  4  4  0  0  0  0
  4  5  4  0  0  0  0
  5  6  4  0  0  0  0
  6  7  4  0  0  0  0
  3  8  4  0  0  0  0
  7  8  4  0  0  0  0
  8  9  1  0  0  0  0
  7 10  1  0  0  0  0
 10 11  1  0  0  0  0
  6 12  1  0  0  0  0
  5 13  1  0  0  0  0
 13 14  2  0  0  0  0
  1 15  1  0  0  0  0
  1 16  1  0  0  0  0
  1 17  1  0  0  0  0
  4 18  1  0  0  0  0
  9 19  1  0  0  0  0
 11 20  1  0  0  0  0
 11 21  1  0  0  0  0
 11 22  1  0  0  0  0
 13 23  1  0  0  0  0
M  END
