 xtb: 6.7.1 (edcfbbe)
          04112516123D

 19 18  0     0  0            999 V2000
   -3.4664   -0.0321    0.2071 C   0  0  0  0  0  0  0  0  0  0  0  0
   -2.0069   -0.4063   -0.0249 C   0  0  0  0  0  0  0  0  0  0  0  0
   -1.1378    0.8324   -0.2373 C   0  0  0  0  0  0  0  0  0  0  0  0
    0.3110    0.5069   -0.5997 C   0  0  0  0  0  0  0  0  0  0  0  0
    1.0772   -0.1553    0.5515 C   0  0  0  0  0  0  0  0  0  0  0  0
    2.4719   -0.3437    0.2091 C   0  0  0  0  0  0  0  0  0  0  0  0
    3.6203   -0.4891   -0.0959 C   0  0  0  0  0  0  0  0  0  0  0  0
   -3.8633    0.5076   -0.6500 H   0  0  0  0  0  0  0  0  0  0  0  0
   -3.5614    0.6037    1.0846 H   0  0  0  0  0  0  0  0  0  0  0  0
   -4.0700   -0.9232    0.3615 H   0  0  0  0  0  0  0  0  0  0  0  0
   -1.6460   -0.9711    0.8363 H   0  0  0  0  0  0  0  0  0  0  0  0
   -1.9335   -1.0519   -0.9032 H   0  0  0  0  0  0  0  0  0  0  0  0
   -1.1569    1.4464    0.6665 H   0  0  0  0  0  0  0  0  0  0  0  0
   -1.5702    1.4261   -1.0466 H   0  0  0  0  0  0  0  0  0  0  0  0
    0.8250    1.4317   -0.8731 H   0  0  0  0  0  0  0  0  0  0  0  0
    0.3319   -0.1518   -1.4710 H   0  0  0  0  0  0  0  0  0  0  0  0
    0.6424   -1.1299    0.7846 H   0  0  0  0  0  0  0  0  0  0  0  0
    1.0153    0.4729    1.4445 H   0  0  0  0  0  0  0  0  0  0  0  0
    4.6284   -0.6215   -0.3521 H   0  0  0  0  0  0  0  0  0  0  0  0
  1  2  1  0  0  0  0
  2  3  1  0  0  0  0
  3  4  1  0  0  0  0
  4  5  1  0  0  0  0
  5  6  1  0  0  0  0
  6  7  3  0  0  0  0
  1  8  1  0  0  0  0
  1  9  1  0  0  0  0
  1 10  1  0  0  0  0
  2 11  1  0  0  0  0
  2 12  1  0  0  0  0
  3 13  1  0  0  0  0
  3 14  1  0  0  0  0
  4 15  1  0  0  0  0
  4 16  1  0  0  0  0
  5 17  1  0  0  0  0
  5 18  1  0  0  0  0
  7 19  1  0  0  0  0
M  END
