 xtb: 6.7.1 (edcfbbe)
          04112516013D

 20 19  0     0  0            999 V2000
   -3.4086   -0.2023   -0.7842 C   0  0  0  0  0  0  0  0  0  0  0  0
   -2.8356    0.4649    0.4615 C   0  0  0  0  0  0  0  0  0  0  0  0
   -1.4937   -0.1246    0.8954 C   0  0  0  0  0  0  0  0  0  0  0  0
   -0.3796    0.1604   -0.1020 C   0  0  0  0  0  0  0  0  0  0  0  0
    0.8519   -0.3134    0.4623 O   0  0  0  0  0  0  0  0  0  0  0  0
    1.9786   -0.0261   -0.1780 C   0  0  0  0  0  0  0  0  0  0  0  0
    2.0077    0.6024   -1.2170 O   0  0  0  0  0  0  0  0  0  0  0  0
    3.1796   -0.5537    0.5465 C   0  0  0  0  0  0  0  0  0  0  0  0
   -4.4012    0.1878   -0.9941 H   0  0  0  0  0  0  0  0  0  0  0  0
   -2.7818   -0.0152   -1.6519 H   0  0  0  0  0  0  0  0  0  0  0  0
   -3.4864   -1.2770   -0.6381 H   0  0  0  0  0  0  0  0  0  0  0  0
   -2.7179    1.5349    0.2797 H   0  0  0  0  0  0  0  0  0  0  0  0
   -3.5417    0.3426    1.2842 H   0  0  0  0  0  0  0  0  0  0  0  0
   -1.2014    0.3033    1.8557 H   0  0  0  0  0  0  0  0  0  0  0  0
   -1.5844   -1.2041    1.0222 H   0  0  0  0  0  0  0  0  0  0  0  0
   -0.5389   -0.3520   -1.0554 H   0  0  0  0  0  0  0  0  0  0  0  0
   -0.2839    1.2333   -0.3028 H   0  0  0  0  0  0  0  0  0  0  0  0
    2.9015   -1.4162    1.1426 H   0  0  0  0  0  0  0  0  0  0  0  0
    3.5513    0.2275    1.2065 H   0  0  0  0  0  0  0  0  0  0  0  0
    3.9581   -0.8001   -0.1686 H   0  0  0  0  0  0  0  0  0  0  0  0
  1  2  1  0  0  0  0
  2  3  1  0  0  0  0
  3  4  1  0  0  0  0
  4  5  1  0  0  0  0
  5  6  1  0  0  0  0
  6  7  2  0  0  0  0
  6  8  1  0  0  0  0
  1  9  1  0  0  0  0
  1 10  1  0  0  0  0
  1 11  1  0  0  0  0
  2 12  1  0  0  0  0
  2 13  1  0  0  0  0
  3 14  1  0  0  0  0
  3 15  1  0  0  0  0
  4 16  1  0  0  0  0
  4 17  1  0  0  0  0
  8 18  1  0  0  0  0
  8 19  1  0  0  0  0
  8 20  1  0  0  0  0
M  END
