 xtb: 6.7.1 (edcfbbe)
          04112514233D

 23 22  0     0  0            999 V2000
    3.3649   -0.5406    0.0693 C   0  0  0  0  0  0  0  0  0  0  0  0
    2.1112    0.3244    0.1934 C   0  0  0  0  0  0  0  0  0  0  0  0
    1.6680    0.8067   -1.1855 C   0  0  0  0  0  0  0  0  0  0  0  0
    1.0094   -0.4703    0.9045 C   0  0  0  0  0  0  0  0  0  0  0  0
   -0.2142    0.3555    1.2980 C   0  0  0  0  0  0  0  0  0  0  0  0
   -1.0416    0.6960    0.1774 O   0  0  0  0  0  0  0  0  0  0  0  0
   -1.9375   -0.1924   -0.2383 C   0  0  0  0  0  0  0  0  0  0  0  0
   -2.1083   -1.2715    0.2910 O   0  0  0  0  0  0  0  0  0  0  0  0
   -2.7082    0.3181   -1.4191 C   0  0  0  0  0  0  0  0  0  0  0  0
    4.1616    0.0143   -0.4195 H   0  0  0  0  0  0  0  0  0  0  0  0
    3.1536   -1.4295   -0.5209 H   0  0  0  0  0  0  0  0  0  0  0  0
    3.7157   -0.8544    1.0493 H   0  0  0  0  0  0  0  0  0  0  0  0
    2.3521    1.1988    0.8079 H   0  0  0  0  0  0  0  0  0  0  0  0
    0.8114    1.4701   -1.1066 H   0  0  0  0  0  0  0  0  0  0  0  0
    1.3939   -0.0412   -1.8109 H   0  0  0  0  0  0  0  0  0  0  0  0
    2.4773    1.3446   -1.6735 H   0  0  0  0  0  0  0  0  0  0  0  0
    1.4179   -0.8944    1.8230 H   0  0  0  0  0  0  0  0  0  0  0  0
    0.6822   -1.3000    0.2732 H   0  0  0  0  0  0  0  0  0  0  0  0
   -0.8236   -0.2090    2.0110 H   0  0  0  0  0  0  0  0  0  0  0  0
    0.0793    1.3135    1.7290 H   0  0  0  0  0  0  0  0  0  0  0  0
   -3.3781   -0.4554   -1.7793 H   0  0  0  0  0  0  0  0  0  0  0  0
   -2.0153    0.6173   -2.2003 H   0  0  0  0  0  0  0  0  0  0  0  0
   -3.2772    1.1939   -1.1182 H   0  0  0  0  0  0  0  0  0  0  0  0
  1  2  1  0  0  0  0
  2  3  1  0  0  0  0
  2  4  1  0  0  0  0
  4  5  1  0  0  0  0
  5  6  1  0  0  0  0
  6  7  1  0  0  0  0
  7  8  2  0  0  0  0
  7  9  1  0  0  0  0
  1 10  1  0  0  0  0
  1 11  1  0  0  0  0
  1 12  1  0  0  0  0
  2 13  1  0  0  0  0
  3 14  1  0  0  0  0
  3 15  1  0  0  0  0
  3 16  1  0  0  0  0
  4 17  1  0  0  0  0
  4 18  1  0  0  0  0
  5 19  1  0  0  0  0
  5 20  1  0  0  0  0
  9 21  1  0  0  0  0
  9 22  1  0  0  0  0
  9 23  1  0  0  0  0
M  END
