 xtb: 6.7.1 (edcfbbe)
          04112514233D

 23 22  0     0  0            999 V2000
    3.4696    0.0785   -0.0013 C   0  0  0  0  0  0  0  0  0  0  0  0
    2.0008    0.3572    0.3154 C   0  0  0  0  0  0  0  0  0  0  0  0
    1.3341    1.0627   -0.8636 C   0  0  0  0  0  0  0  0  0  0  0  0
    1.2993   -0.9592    0.6714 C   0  0  0  0  0  0  0  0  0  0  0  0
   -0.1588   -0.8081    1.0983 C   0  0  0  0  0  0  0  0  0  0  0  0
   -1.0174   -0.8276   -0.0522 O   0  0  0  0  0  0  0  0  0  0  0  0
   -1.9415    0.1097   -0.2004 C   0  0  0  0  0  0  0  0  0  0  0  0
   -2.1305    1.0065    0.5984 O   0  0  0  0  0  0  0  0  0  0  0  0
   -2.7067   -0.0703   -1.4776 C   0  0  0  0  0  0  0  0  0  0  0  0
    3.9949    1.0064   -0.2124 H   0  0  0  0  0  0  0  0  0  0  0  0
    3.5517   -0.5683   -0.8715 H   0  0  0  0  0  0  0  0  0  0  0  0
    3.9580   -0.4087    0.8388 H   0  0  0  0  0  0  0  0  0  0  0  0
    1.9514    1.0196    1.1873 H   0  0  0  0  0  0  0  0  0  0  0  0
    1.2540    0.3896   -1.7144 H   0  0  0  0  0  0  0  0  0  0  0  0
    1.9194    1.9293   -1.1623 H   0  0  0  0  0  0  0  0  0  0  0  0
    0.3380    1.4114   -0.6004 H   0  0  0  0  0  0  0  0  0  0  0  0
    1.8399   -1.4283    1.4940 H   0  0  0  0  0  0  0  0  0  0  0  0
    1.3315   -1.6346   -0.1853 H   0  0  0  0  0  0  0  0  0  0  0  0
   -0.4640   -1.6552    1.7186 H   0  0  0  0  0  0  0  0  0  0  0  0
   -0.3279    0.1214    1.6506 H   0  0  0  0  0  0  0  0  0  0  0  0
   -2.4044    0.7089   -2.1739 H   0  0  0  0  0  0  0  0  0  0  0  0
   -3.7683    0.0483   -1.2818 H   0  0  0  0  0  0  0  0  0  0  0  0
   -2.4938   -1.0449   -1.9023 H   0  0  0  0  0  0  0  0  0  0  0  0
  1  2  1  0  0  0  0
  2  3  1  0  0  0  0
  2  4  1  0  0  0  0
  4  5  1  0  0  0  0
  5  6  1  0  0  0  0
  6  7  1  0  0  0  0
  7  8  2  0  0  0  0
  7  9  1  0  0  0  0
  1 10  1  0  0  0  0
  1 11  1  0  0  0  0
  1 12  1  0  0  0  0
  2 13  1  0  0  0  0
  3 14  1  0  0  0  0
  3 15  1  0  0  0  0
  3 16  1  0  0  0  0
  4 17  1  0  0  0  0
  4 18  1  0  0  0  0
  5 19  1  0  0  0  0
  5 20  1  0  0  0  0
  9 21  1  0  0  0  0
  9 22  1  0  0  0  0
  9 23  1  0  0  0  0
M  END
