 xtb: 6.7.1 (edcfbbe)
          04112516133D

 13 12  0     0  0            999 V2000
    2.1213    1.0857   -0.1861 C   0  0  0  0  0  0  0  0  0  0  0  0
    1.8369   -0.2748    0.3386 C   0  0  0  0  0  0  0  0  0  0  0  0
    2.6785   -1.0889    0.6436 O   0  0  0  0  0  0  0  0  0  0  0  0
    0.3629   -0.6365    0.4961 C   0  0  0  0  0  0  0  0  0  0  0  0
   -0.4741    0.4614    0.1706 O   0  0  0  0  0  0  0  0  0  0  0  0
   -1.7178    0.1904   -0.3293 N   0  0  0  0  0  0  0  0  0  0  0  0
   -2.0294   -0.9510   -0.4557 O   0  0  0  0  0  0  0  0  0  0  0  0
   -2.3459    1.1657   -0.5840 O   0  0  0  0  0  0  0  0  0  0  0  0
    3.1926    1.2535   -0.2337 H   0  0  0  0  0  0  0  0  0  0  0  0
    1.6814    1.1925   -1.1752 H   0  0  0  0  0  0  0  0  0  0  0  0
    1.6457    1.8236    0.4560 H   0  0  0  0  0  0  0  0  0  0  0  0
    0.1854   -0.9471    1.5314 H   0  0  0  0  0  0  0  0  0  0  0  0
    0.1371   -1.4930   -0.1504 H   0  0  0  0  0  0  0  0  0  0  0  0
  1  2  1  0  0  0  0
  2  3  2  0  0  0  0
  2  4  1  0  0  0  0
  4  5  1  0  0  0  0
  5  6  1  0  0  0  0
  6  7  4  0  0  0  0
  6  8  4  0  0  0  0
  1  9  1  0  0  0  0
  1 10  1  0  0  0  0
  1 11  1  0  0  0  0
  4 12  1  0  0  0  0
  4 13  1  0  0  0  0
M  END
