 xtb: 6.7.1 (edcfbbe)
          04112516253D

 17 16  0     0  0            999 V2000
   -3.1166   -0.4678    0.1485 C   0  0  0  0  0  0  0  0  0  0  0  0
   -1.7093   -0.0360    0.5420 C   0  0  0  0  0  0  0  0  0  0  0  0
   -0.9677    0.5982   -0.6335 C   0  0  0  0  0  0  0  0  0  0  0  0
    0.4384    1.0561   -0.2478 C   0  0  0  0  0  0  0  0  0  0  0  0
    1.3895   -0.0977   -0.0393 C   0  0  0  0  0  0  0  0  0  0  0  0
    1.1627   -1.2413   -0.3587 O   0  0  0  0  0  0  0  0  0  0  0  0
    2.5633    0.2097    0.5177 O   0  0  0  0  0  0  0  0  0  0  0  0
   -3.0771   -1.2009   -0.6538 H   0  0  0  0  0  0  0  0  0  0  0  0
   -3.6296   -0.9147    0.9963 H   0  0  0  0  0  0  0  0  0  0  0  0
   -3.6956    0.3867   -0.1943 H   0  0  0  0  0  0  0  0  0  0  0  0
   -1.1465   -0.9050    0.8900 H   0  0  0  0  0  0  0  0  0  0  0  0
   -1.7688    0.6801    1.3650 H   0  0  0  0  0  0  0  0  0  0  0  0
   -0.8921   -0.1316   -1.4419 H   0  0  0  0  0  0  0  0  0  0  0  0
   -1.5357    1.4557   -0.9973 H   0  0  0  0  0  0  0  0  0  0  0  0
    0.3979    1.6585    0.6618 H   0  0  0  0  0  0  0  0  0  0  0  0
    0.8566    1.6713   -1.0489 H   0  0  0  0  0  0  0  0  0  0  0  0
    2.6627    1.1539    0.7377 H   0  0  0  0  0  0  0  0  0  0  0  0
  1  2  1  0  0  0  0
  2  3  1  0  0  0  0
  3  4  1  0  0  0  0
  4  5  1  0  0  0  0
  5  6  2  0  0  0  0
  5  7  1  0  0  0  0
  1  8  1  0  0  0  0
  1  9  1  0  0  0  0
  1 10  1  0  0  0  0
  2 11  1  0  0  0  0
  2 12  1  0  0  0  0
  3 13  1  0  0  0  0
  3 14  1  0  0  0  0
  4 15  1  0  0  0  0
  4 16  1  0  0  0  0
  7 17  1  0  0  0  0
M  END
