 xtb: 6.7.1 (edcfbbe)
          04112516193D

 23 23  0     0  0            999 V2000
   -3.9378   -0.5965    0.0027 C   0  0  0  0  0  0  0  0  0  0  0  0
   -2.9742    0.4431   -0.0001 O   0  0  0  0  0  0  0  0  0  0  0  0
   -1.6539    0.1047   -0.0005 C   0  0  0  0  0  0  0  0  0  0  0  0
   -1.1565   -1.1772    0.0009 C   0  0  0  0  0  0  0  0  0  0  0  0
    0.2271   -1.3990   -0.0001 C   0  0  0  0  0  0  0  0  0  0  0  0
    1.0824   -0.2984   -0.0018 C   0  0  0  0  0  0  0  0  0  0  0  0
    0.6037    1.0182   -0.0030 C   0  0  0  0  0  0  0  0  0  0  0  0
   -0.7837    1.2195   -0.0031 C   0  0  0  0  0  0  0  0  0  0  0  0
   -1.3200    2.4580   -0.0060 O   0  0  0  0  0  0  0  0  0  0  0  0
    1.5634    1.9750   -0.0051 O   0  0  0  0  0  0  0  0  0  0  0  0
    1.2301    3.3566    0.0070 C   0  0  0  0  0  0  0  0  0  0  0  0
    2.7985   -0.4939   -0.0026 Cl  0  0  0  0  0  0  0  0  0  0  0  0
    0.7135   -2.7693    0.0010 C   0  0  0  0  0  0  0  0  0  0  0  0
    0.0025   -3.7562    0.0028 O   0  0  0  0  0  0  0  0  0  0  0  0
   -3.8444   -1.2183   -0.8897 H   0  0  0  0  0  0  0  0  0  0  0  0
   -4.9003   -0.0912    0.0029 H   0  0  0  0  0  0  0  0  0  0  0  0
   -3.8423   -1.2154    0.8968 H   0  0  0  0  0  0  0  0  0  0  0  0
   -1.7924   -2.0469    0.0025 H   0  0  0  0  0  0  0  0  0  0  0  0
   -2.2923    2.3858   -0.0049 H   0  0  0  0  0  0  0  0  0  0  0  0
    0.6672    3.6197    0.9025 H   0  0  0  0  0  0  0  0  0  0  0  0
    0.6637    3.6348   -0.8816 H   0  0  0  0  0  0  0  0  0  0  0  0
    2.1913    3.8659    0.0094 H   0  0  0  0  0  0  0  0  0  0  0  0
    1.8095   -2.8747    0.0000 H   0  0  0  0  0  0  0  0  0  0  0  0
  1  2  1  0  0  0  0
  2  3  1  0  0  0  0
  3  4  4  0  0  0  0
  4  5  4  0  0  0  0
  5  6  4  0  0  0  0
  6  7  4  0  0  0  0
  3  8  4  0  0  0  0
  7  8  4  0  0  0  0
  8  9  1  0  0  0  0
  7 10  1  0  0  0  0
 10 11  1  0  0  0  0
  6 12  1  0  0  0  0
  5 13  1  0  0  0  0
 13 14  2  0  0  0  0
  1 15  1  0  0  0  0
  1 16  1  0  0  0  0
  1 17  1  0  0  0  0
  4 18  1  0  0  0  0
  9 19  1  0  0  0  0
 11 20  1  0  0  0  0
 11 21  1  0  0  0  0
 11 22  1  0  0  0  0
 13 23  1  0  0  0  0
M  END
