 xtb: 6.7.1 (edcfbbe)
          04112516203D

 17 16  0     0  0            999 V2000
   -1.8708   -0.9820   -0.1261 C   0  0  0  0  0  0  0  0  0  0  0  0
   -2.0211    0.4953    0.2147 C   0  0  0  0  0  0  0  0  0  0  0  0
   -0.8241    1.3407   -0.2195 C   0  0  0  0  0  0  0  0  0  0  0  0
    0.4577    1.0160    0.5559 C   0  0  0  0  0  0  0  0  0  0  0  0
    1.1570   -0.2356    0.1015 C   0  0  0  0  0  0  0  0  0  0  0  0
    1.6150   -1.0750    0.8523 O   0  0  0  0  0  0  0  0  0  0  0  0
    1.2845   -0.3206   -1.2124 O   0  0  0  0  0  0  0  0  0  0  0  0
   -1.7038   -1.1107   -1.1932 H   0  0  0  0  0  0  0  0  0  0  0  0
   -1.0341   -1.4228    0.4121 H   0  0  0  0  0  0  0  0  0  0  0  0
   -2.7703   -1.5272    0.1496 H   0  0  0  0  0  0  0  0  0  0  0  0
   -2.1674    0.6045    1.2915 H   0  0  0  0  0  0  0  0  0  0  0  0
   -2.9128    0.8828   -0.2821 H   0  0  0  0  0  0  0  0  0  0  0  0
   -0.6416    1.2021   -1.2858 H   0  0  0  0  0  0  0  0  0  0  0  0
   -1.0641    2.3912   -0.0501 H   0  0  0  0  0  0  0  0  0  0  0  0
    0.2582    0.9277    1.6242 H   0  0  0  0  0  0  0  0  0  0  0  0
    1.1756    1.8258    0.4048 H   0  0  0  0  0  0  0  0  0  0  0  0
    1.7845   -1.1118   -1.4893 H   0  0  0  0  0  0  0  0  0  0  0  0
  1  2  1  0  0  0  0
  2  3  1  0  0  0  0
  3  4  1  0  0  0  0
  4  5  1  0  0  0  0
  5  6  2  0  0  0  0
  5  7  1  0  0  0  0
  1  8  1  0  0  0  0
  1  9  1  0  0  0  0
  1 10  1  0  0  0  0
  2 11  1  0  0  0  0
  2 12  1  0  0  0  0
  3 13  1  0  0  0  0
  3 14  1  0  0  0  0
  4 15  1  0  0  0  0
  4 16  1  0  0  0  0
  7 17  1  0  0  0  0
M  END
