 xtb: 6.7.1 (edcfbbe)
          04112516013D

 20 19  0     0  0            999 V2000
   -4.0456   -0.0098    0.0287 C   0  0  0  0  0  0  0  0  0  0  0  0
   -2.6955   -0.6101    0.4021 C   0  0  0  0  0  0  0  0  0  0  0  0
   -1.5428    0.2277   -0.1483 C   0  0  0  0  0  0  0  0  0  0  0  0
   -0.1895   -0.3651    0.2288 C   0  0  0  0  0  0  0  0  0  0  0  0
    0.8236    0.4797   -0.3287 O   0  0  0  0  0  0  0  0  0  0  0  0
    2.1205    0.2362   -0.1596 C   0  0  0  0  0  0  0  0  0  0  0  0
    2.9147    1.0029   -0.6682 O   0  0  0  0  0  0  0  0  0  0  0  0
    2.5361   -0.9609    0.6437 C   0  0  0  0  0  0  0  0  0  0  0  0
   -4.1541    0.0419   -1.0518 H   0  0  0  0  0  0  0  0  0  0  0  0
   -4.8546   -0.6160    0.4273 H   0  0  0  0  0  0  0  0  0  0  0  0
   -4.1392    0.9963    0.4298 H   0  0  0  0  0  0  0  0  0  0  0  0
   -2.6133   -0.6696    1.4888 H   0  0  0  0  0  0  0  0  0  0  0  0
   -2.6275   -1.6247    0.0055 H   0  0  0  0  0  0  0  0  0  0  0  0
   -1.6090    0.2863   -1.2355 H   0  0  0  0  0  0  0  0  0  0  0  0
   -1.6006    1.2447    0.2418 H   0  0  0  0  0  0  0  0  0  0  0  0
   -0.0818   -0.4027    1.3172 H   0  0  0  0  0  0  0  0  0  0  0  0
   -0.0909   -1.3763   -0.1784 H   0  0  0  0  0  0  0  0  0  0  0  0
    2.1436   -1.8698    0.1937 H   0  0  0  0  0  0  0  0  0  0  0  0
    2.1512   -0.8825    1.6579 H   0  0  0  0  0  0  0  0  0  0  0  0
    3.6204   -1.0017    0.6665 H   0  0  0  0  0  0  0  0  0  0  0  0
  1  2  1  0  0  0  0
  2  3  1  0  0  0  0
  3  4  1  0  0  0  0
  4  5  1  0  0  0  0
  5  6  1  0  0  0  0
  6  7  2  0  0  0  0
  6  8  1  0  0  0  0
  1  9  1  0  0  0  0
  1 10  1  0  0  0  0
  1 11  1  0  0  0  0
  2 12  1  0  0  0  0
  2 13  1  0  0  0  0
  3 14  1  0  0  0  0
  3 15  1  0  0  0  0
  4 16  1  0  0  0  0
  4 17  1  0  0  0  0
  8 18  1  0  0  0  0
  8 19  1  0  0  0  0
  8 20  1  0  0  0  0
M  END
