 xtb: 6.7.1 (edcfbbe)
          04112516483D

 20 19  0     0  0            999 V2000
    2.2553   -1.5263    0.5421 C   0  0  0  0  0  0  0  0  0  0  0  0
    1.8457   -0.2973   -0.2033 C   0  0  0  0  0  0  0  0  0  0  0  0
    2.0802   -0.0675   -1.3698 O   0  0  0  0  0  0  0  0  0  0  0  0
    1.1683    0.5473    0.5795 O   0  0  0  0  0  0  0  0  0  0  0  0
    0.6111    1.7177   -0.0252 C   0  0  0  0  0  0  0  0  0  0  0  0
   -0.6550    1.3809   -0.8129 C   0  0  0  0  0  0  0  0  0  0  0  0
   -1.6634    0.8630    0.0557 O   0  0  0  0  0  0  0  0  0  0  0  0
   -1.7128   -0.4525    0.2692 C   0  0  0  0  0  0  0  0  0  0  0  0
   -0.9905   -1.2506   -0.2907 O   0  0  0  0  0  0  0  0  0  0  0  0
   -2.7614   -0.7981    1.2788 C   0  0  0  0  0  0  0  0  0  0  0  0
    3.1301   -1.9676    0.0765 H   0  0  0  0  0  0  0  0  0  0  0  0
    1.4254   -2.2294    0.4760 H   0  0  0  0  0  0  0  0  0  0  0  0
    2.4323   -1.2898    1.5859 H   0  0  0  0  0  0  0  0  0  0  0  0
    0.3826    2.3812    0.8087 H   0  0  0  0  0  0  0  0  0  0  0  0
    1.3443    2.1647   -0.7021 H   0  0  0  0  0  0  0  0  0  0  0  0
   -0.4260    0.6422   -1.5879 H   0  0  0  0  0  0  0  0  0  0  0  0
   -1.0726    2.2856   -1.2530 H   0  0  0  0  0  0  0  0  0  0  0  0
   -2.2938   -0.8086    2.2615 H   0  0  0  0  0  0  0  0  0  0  0  0
   -3.1569   -1.7876    1.0729 H   0  0  0  0  0  0  0  0  0  0  0  0
   -3.5445   -0.0477    1.2704 H   0  0  0  0  0  0  0  0  0  0  0  0
  1  2  1  0  0  0  0
  2  3  2  0  0  0  0
  2  4  1  0  0  0  0
  4  5  1  0  0  0  0
  5  6  1  0  0  0  0
  6  7  1  0  0  0  0
  7  8  1  0  0  0  0
  8  9  2  0  0  0  0
  8 10  1  0  0  0  0
  1 11  1  0  0  0  0
  1 12  1  0  0  0  0
  1 13  1  0  0  0  0
  5 14  1  0  0  0  0
  5 15  1  0  0  0  0
  6 16  1  0  0  0  0
  6 17  1  0  0  0  0
 10 18  1  0  0  0  0
 10 19  1  0  0  0  0
 10 20  1  0  0  0  0
M  END
