 xtb: 6.7.1 (edcfbbe)
          04112516263D

 20 19  0     0  0            999 V2000
   -2.7499   -0.3010   -0.7861 C   0  0  0  0  0  0  0  0  0  0  0  0
   -1.8813   -0.7969    0.3648 C   0  0  0  0  0  0  0  0  0  0  0  0
   -1.2488    0.3359    1.1747 C   0  0  0  0  0  0  0  0  0  0  0  0
   -0.3155    1.2298    0.3465 C   0  0  0  0  0  0  0  0  0  0  0  0
    0.7808    0.4221   -0.2967 C   0  0  0  0  0  0  0  0  0  0  0  0
    0.9306    0.2828   -1.4933 O   0  0  0  0  0  0  0  0  0  0  0  0
    1.5810   -0.1231    0.6117 O   0  0  0  0  0  0  0  0  0  0  0  0
    2.6687   -0.9388    0.1703 C   0  0  0  0  0  0  0  0  0  0  0  0
   -3.2816   -1.1336   -1.2400 H   0  0  0  0  0  0  0  0  0  0  0  0
   -3.4805    0.4209   -0.4291 H   0  0  0  0  0  0  0  0  0  0  0  0
   -2.1405    0.1661   -1.5559 H   0  0  0  0  0  0  0  0  0  0  0  0
   -2.4920   -1.3995    1.0404 H   0  0  0  0  0  0  0  0  0  0  0  0
   -1.0952   -1.4430   -0.0346 H   0  0  0  0  0  0  0  0  0  0  0  0
   -0.6774   -0.0943    1.9988 H   0  0  0  0  0  0  0  0  0  0  0  0
   -2.0374    0.9618    1.5945 H   0  0  0  0  0  0  0  0  0  0  0  0
    0.1475    1.9642    1.0061 H   0  0  0  0  0  0  0  0  0  0  0  0
   -0.8652    1.7457   -0.4388 H   0  0  0  0  0  0  0  0  0  0  0  0
    3.4926   -0.7510    0.8535 H   0  0  0  0  0  0  0  0  0  0  0  0
    2.9393   -0.6766   -0.8532 H   0  0  0  0  0  0  0  0  0  0  0  0
    2.3687   -1.9858    0.2144 H   0  0  0  0  0  0  0  0  0  0  0  0
  1  2  1  0  0  0  0
  2  3  1  0  0  0  0
  3  4  1  0  0  0  0
  4  5  1  0  0  0  0
  5  6  2  0  0  0  0
  5  7  1  0  0  0  0
  7  8  1  0  0  0  0
  1  9  1  0  0  0  0
  1 10  1  0  0  0  0
  1 11  1  0  0  0  0
  2 12  1  0  0  0  0
  2 13  1  0  0  0  0
  3 14  1  0  0  0  0
  3 15  1  0  0  0  0
  4 16  1  0  0  0  0
  4 17  1  0  0  0  0
  8 18  1  0  0  0  0
  8 19  1  0  0  0  0
  8 20  1  0  0  0  0
M  END
