 xtb: 6.7.1 (edcfbbe)
          04112516013D

 20 19  0     0  0            999 V2000
   -3.2852    0.3978   -0.8728 C   0  0  0  0  0  0  0  0  0  0  0  0
   -2.8803   -0.1830    0.4777 C   0  0  0  0  0  0  0  0  0  0  0  0
   -1.4678    0.2164    0.9036 C   0  0  0  0  0  0  0  0  0  0  0  0
   -0.3950   -0.3849    0.0044 C   0  0  0  0  0  0  0  0  0  0  0  0
    0.8867   -0.1232    0.5951 O   0  0  0  0  0  0  0  0  0  0  0  0
    1.9469   -0.0240   -0.1969 C   0  0  0  0  0  0  0  0  0  0  0  0
    1.8933   -0.1420   -1.4048 O   0  0  0  0  0  0  0  0  0  0  0  0
    3.1978    0.2370    0.5865 C   0  0  0  0  0  0  0  0  0  0  0  0
   -4.3195    0.1464   -1.0934 H   0  0  0  0  0  0  0  0  0  0  0  0
   -3.1898    1.4809   -0.8648 H   0  0  0  0  0  0  0  0  0  0  0  0
   -2.6628    0.0028   -1.6713 H   0  0  0  0  0  0  0  0  0  0  0  0
   -3.5778    0.1713    1.2383 H   0  0  0  0  0  0  0  0  0  0  0  0
   -2.9515   -1.2717    0.4414 H   0  0  0  0  0  0  0  0  0  0  0  0
   -1.3708    1.3032    0.8961 H   0  0  0  0  0  0  0  0  0  0  0  0
   -1.2819   -0.1315    1.9209 H   0  0  0  0  0  0  0  0  0  0  0  0
   -0.5154   -1.4704   -0.0754 H   0  0  0  0  0  0  0  0  0  0  0  0
   -0.4057    0.0438   -1.0020 H   0  0  0  0  0  0  0  0  0  0  0  0
    3.6981   -0.7138    0.7588 H   0  0  0  0  0  0  0  0  0  0  0  0
    2.9493    0.6866    1.5417 H   0  0  0  0  0  0  0  0  0  0  0  0
    3.8619    0.8731    0.0097 H   0  0  0  0  0  0  0  0  0  0  0  0
  1  2  1  0  0  0  0
  2  3  1  0  0  0  0
  3  4  1  0  0  0  0
  4  5  1  0  0  0  0
  5  6  1  0  0  0  0
  6  7  2  0  0  0  0
  6  8  1  0  0  0  0
  1  9  1  0  0  0  0
  1 10  1  0  0  0  0
  1 11  1  0  0  0  0
  2 12  1  0  0  0  0
  2 13  1  0  0  0  0
  3 14  1  0  0  0  0
  3 15  1  0  0  0  0
  4 16  1  0  0  0  0
  4 17  1  0  0  0  0
  8 18  1  0  0  0  0
  8 19  1  0  0  0  0
  8 20  1  0  0  0  0
M  END
