 xtb: 6.7.1 (edcfbbe)
          04112516013D

 20 19  0     0  0            999 V2000
   -2.1614   -1.3011   -0.0725 C   0  0  0  0  0  0  0  0  0  0  0  0
   -2.5303    0.1755    0.0102 C   0  0  0  0  0  0  0  0  0  0  0  0
   -1.3594    1.1112   -0.2930 C   0  0  0  0  0  0  0  0  0  0  0  0
   -0.2554    1.0874    0.7631 C   0  0  0  0  0  0  0  0  0  0  0  0
    0.5355   -0.1080    0.7123 O   0  0  0  0  0  0  0  0  0  0  0  0
    1.5486   -0.1591   -0.1436 C   0  0  0  0  0  0  0  0  0  0  0  0
    1.8606    0.7629   -0.8703 O   0  0  0  0  0  0  0  0  0  0  0  0
    2.2478   -1.4848   -0.0946 C   0  0  0  0  0  0  0  0  0  0  0  0
   -1.7693   -1.5393   -1.0593 H   0  0  0  0  0  0  0  0  0  0  0  0
   -1.4062   -1.5518    0.6671 H   0  0  0  0  0  0  0  0  0  0  0  0
   -3.0387   -1.9180    0.1059 H   0  0  0  0  0  0  0  0  0  0  0  0
   -3.3262    0.3840   -0.7077 H   0  0  0  0  0  0  0  0  0  0  0  0
   -2.9150    0.3989    1.0071 H   0  0  0  0  0  0  0  0  0  0  0  0
   -0.9200    0.8610   -1.2615 H   0  0  0  0  0  0  0  0  0  0  0  0
   -1.7287    2.1360   -0.3499 H   0  0  0  0  0  0  0  0  0  0  0  0
    0.4123    1.9428    0.6177 H   0  0  0  0  0  0  0  0  0  0  0  0
   -0.6743    1.1026    1.7700 H   0  0  0  0  0  0  0  0  0  0  0  0
    3.3219   -1.3282   -0.1284 H   0  0  0  0  0  0  0  0  0  0  0  0
    1.9628   -2.0576   -0.9744 H   0  0  0  0  0  0  0  0  0  0  0  0
    1.9590   -2.0249    0.8002 H   0  0  0  0  0  0  0  0  0  0  0  0
  1  2  1  0  0  0  0
  2  3  1  0  0  0  0
  3  4  1  0  0  0  0
  4  5  1  0  0  0  0
  5  6  1  0  0  0  0
  6  7  2  0  0  0  0
  6  8  1  0  0  0  0
  1  9  1  0  0  0  0
  1 10  1  0  0  0  0
  1 11  1  0  0  0  0
  2 12  1  0  0  0  0
  2 13  1  0  0  0  0
  3 14  1  0  0  0  0
  3 15  1  0  0  0  0
  4 16  1  0  0  0  0
  4 17  1  0  0  0  0
  8 18  1  0  0  0  0
  8 19  1  0  0  0  0
  8 20  1  0  0  0  0
M  END
