 xtb: 6.7.1 (edcfbbe)
          04112516153D

 26 25  0     0  0            999 V2000
    1.3311    0.3787   -1.8435 C   0  0  0  0  0  0  0  0  0  0  0  0
    1.1897    0.0009   -0.3761 C   0  0  0  0  0  0  0  0  0  0  0  0
    0.6291   -1.4077   -0.2265 C   0  0  0  0  0  0  0  0  0  0  0  0
    0.5085    1.0922    0.3824 C   0  0  0  0  0  0  0  0  0  0  0  0
   -0.5308    1.1880    1.0920 N   0  0  0  0  0  0  0  0  0  0  0  0
   -1.4271    0.0944    1.1961 O   0  0  0  0  0  0  0  0  0  0  0  0
   -2.2077   -0.1574    0.1053 C   0  0  0  0  0  0  0  0  0  0  0  0
   -2.0303    0.3546   -0.9853 O   0  0  0  0  0  0  0  0  0  0  0  0
   -3.1531   -1.0387    0.4283 N   0  0  0  0  0  0  0  0  0  0  0  0
   -4.1323   -1.5282   -0.5166 C   0  0  0  0  0  0  0  0  0  0  0  0
    2.8471   -0.0706    0.4972 S   0  0  0  0  0  0  0  0  0  0  0  0
    3.7930    1.3236   -0.1844 C   0  0  0  0  0  0  0  0  0  0  0  0
    0.3389    0.3640   -2.2940 H   0  0  0  0  0  0  0  0  0  0  0  0
    1.7424    1.3769   -1.9648 H   0  0  0  0  0  0  0  0  0  0  0  0
    1.9642   -0.3422   -2.3549 H   0  0  0  0  0  0  0  0  0  0  0  0
   -0.3054   -1.5061   -0.7736 H   0  0  0  0  0  0  0  0  0  0  0  0
    0.4640   -1.6504    0.8216 H   0  0  0  0  0  0  0  0  0  0  0  0
    1.3438   -2.1182   -0.6359 H   0  0  0  0  0  0  0  0  0  0  0  0
    1.0492    2.0332    0.3839 H   0  0  0  0  0  0  0  0  0  0  0  0
   -3.1858   -1.3683    1.3812 H   0  0  0  0  0  0  0  0  0  0  0  0
   -5.1370   -1.2848   -0.1746 H   0  0  0  0  0  0  0  0  0  0  0  0
   -4.0359   -2.6072   -0.6307 H   0  0  0  0  0  0  0  0  0  0  0  0
   -3.9477   -1.0427   -1.4726 H   0  0  0  0  0  0  0  0  0  0  0  0
    4.7157    1.3367    0.3861 H   0  0  0  0  0  0  0  0  0  0  0  0
    3.2569    2.2551   -0.0352 H   0  0  0  0  0  0  0  0  0  0  0  0
    4.0066    1.1489   -1.2330 H   0  0  0  0  0  0  0  0  0  0  0  0
  1  2  1  0  0  0  0
  2  3  1  0  0  0  0
  2  4  1  0  0  0  0
  4  5  2  0  0  0  0
  5  6  1  0  0  0  0
  6  7  1  0  0  0  0
  7  8  2  0  0  0  0
  7  9  4  0  0  0  0
  9 10  1  0  0  0  0
  2 11  1  0  0  0  0
 11 12  1  0  0  0  0
  1 13  1  0  0  0  0
  1 14  1  0  0  0  0
  1 15  1  0  0  0  0
  3 16  1  0  0  0  0
  3 17  1  0  0  0  0
  3 18  1  0  0  0  0
  4 19  1  0  0  0  0
  9 20  1  0  0  0  0
 10 21  1  0  0  0  0
 10 22  1  0  0  0  0
 10 23  1  0  0  0  0
 12 24  1  0  0  0  0
 12 25  1  0  0  0  0
 12 26  1  0  0  0  0
M  END
