 xtb: 6.7.1 (edcfbbe)
          04112514483D

 18 17  0     0  0            999 V2000
    3.0314    0.2738   -0.2073 C   0  0  0  0  0  0  0  0  0  0  0  0
    1.7820   -0.2122    0.5181 C   0  0  0  0  0  0  0  0  0  0  0  0
    0.5185    0.0366   -0.3019 C   0  0  0  0  0  0  0  0  0  0  0  0
   -0.7410   -0.4467    0.4240 C   0  0  0  0  0  0  0  0  0  0  0  0
   -1.9650   -0.2181   -0.4031 C   0  0  0  0  0  0  0  0  0  0  0  0
   -2.9883    0.5324   -0.0403 C   0  0  0  0  0  0  0  0  0  0  0  0
    3.9187    0.0871    0.3926 H   0  0  0  0  0  0  0  0  0  0  0  0
    2.9665    1.3418   -0.4029 H   0  0  0  0  0  0  0  0  0  0  0  0
    3.1443   -0.2416   -1.1585 H   0  0  0  0  0  0  0  0  0  0  0  0
    1.8740   -1.2813    0.7231 H   0  0  0  0  0  0  0  0  0  0  0  0
    1.6961    0.3025    1.4777 H   0  0  0  0  0  0  0  0  0  0  0  0
    0.4236    1.1054   -0.5079 H   0  0  0  0  0  0  0  0  0  0  0  0
    0.6026   -0.4794   -1.2612 H   0  0  0  0  0  0  0  0  0  0  0  0
   -0.6410   -1.5170    0.6265 H   0  0  0  0  0  0  0  0  0  0  0  0
   -0.8363    0.0724    1.3795 H   0  0  0  0  0  0  0  0  0  0  0  0
   -1.9674   -0.7104   -1.3674 H   0  0  0  0  0  0  0  0  0  0  0  0
   -3.8481    0.6731   -0.6728 H   0  0  0  0  0  0  0  0  0  0  0  0
   -3.0103    1.0355    0.9127 H   0  0  0  0  0  0  0  0  0  0  0  0
  1  2  1  0  0  0  0
  2  3  1  0  0  0  0
  3  4  1  0  0  0  0
  4  5  1  0  0  0  0
  5  6  2  0  0  0  0
  1  7  1  0  0  0  0
  1  8  1  0  0  0  0
  1  9  1  0  0  0  0
  2 10  1  0  0  0  0
  2 11  1  0  0  0  0
  3 12  1  0  0  0  0
  3 13  1  0  0  0  0
  4 14  1  0  0  0  0
  4 15  1  0  0  0  0
  5 16  1  0  0  0  0
  6 17  1  0  0  0  0
  6 18  1  0  0  0  0
M  END
