 xtb: 6.7.1 (edcfbbe)
          04112514203D

 23 22  0     0  0            999 V2000
    3.0116   -0.1261   -0.5704 C   0  0  0  0  0  0  0  0  0  0  0  0
    1.5887    0.3444   -0.2869 C   0  0  0  0  0  0  0  0  0  0  0  0
    0.8554   -0.6293    0.6333 C   0  0  0  0  0  0  0  0  0  0  0  0
   -0.4574   -0.1127    1.2298 C   0  0  0  0  0  0  0  0  0  0  0  0
   -1.6511    0.1083    0.2824 C   0  0  0  0  0  0  0  0  0  0  0  0
   -1.5975    1.4467   -0.4538 C   0  0  0  0  0  0  0  0  0  0  0  0
   -1.8322   -1.0408   -0.7068 C   0  0  0  0  0  0  0  0  0  0  0  0
    3.5850   -0.1882    0.3520 H   0  0  0  0  0  0  0  0  0  0  0  0
    3.0011   -1.1108   -1.0327 H   0  0  0  0  0  0  0  0  0  0  0  0
    3.5160    0.5639   -1.2426 H   0  0  0  0  0  0  0  0  0  0  0  0
    1.0577    0.4370   -1.2348 H   0  0  0  0  0  0  0  0  0  0  0  0
    1.6196    1.3315    0.1795 H   0  0  0  0  0  0  0  0  0  0  0  0
    0.6777   -1.5655    0.1023 H   0  0  0  0  0  0  0  0  0  0  0  0
    1.5169   -0.8589    1.4738 H   0  0  0  0  0  0  0  0  0  0  0  0
   -0.7695   -0.8434    1.9814 H   0  0  0  0  0  0  0  0  0  0  0  0
   -0.2585    0.8244    1.7559 H   0  0  0  0  0  0  0  0  0  0  0  0
   -2.5416    0.1367    0.9239 H   0  0  0  0  0  0  0  0  0  0  0  0
   -2.5333    1.6150   -0.9830 H   0  0  0  0  0  0  0  0  0  0  0  0
   -1.4524    2.2638    0.2492 H   0  0  0  0  0  0  0  0  0  0  0  0
   -0.7910    1.4707   -1.1795 H   0  0  0  0  0  0  0  0  0  0  0  0
   -2.7714   -0.9262   -1.2435 H   0  0  0  0  0  0  0  0  0  0  0  0
   -1.8500   -1.9954   -0.1859 H   0  0  0  0  0  0  0  0  0  0  0  0
   -1.0266   -1.0553   -1.4362 H   0  0  0  0  0  0  0  0  0  0  0  0
  1  2  1  0  0  0  0
  2  3  1  0  0  0  0
  3  4  1  0  0  0  0
  4  5  1  0  0  0  0
  5  6  1  0  0  0  0
  5  7  1  0  0  0  0
  1  8  1  0  0  0  0
  1  9  1  0  0  0  0
  1 10  1  0  0  0  0
  2 11  1  0  0  0  0
  2 12  1  0  0  0  0
  3 13  1  0  0  0  0
  3 14  1  0  0  0  0
  4 15  1  0  0  0  0
  4 16  1  0  0  0  0
  5 17  1  0  0  0  0
  6 18  1  0  0  0  0
  6 19  1  0  0  0  0
  6 20  1  0  0  0  0
  7 21  1  0  0  0  0
  7 22  1  0  0  0  0
  7 23  1  0  0  0  0
M  END
