 xtb: 6.7.1 (edcfbbe)
          04112514343D

 18 17  0     0  0            999 V2000
    1.6586    1.1001   -0.3253 C   0  0  0  0  0  0  0  0  0  0  0  0
    1.6703   -0.1824    0.4981 C   0  0  0  0  0  0  0  0  0  0  0  0
    0.7018   -1.2490   -0.0168 C   0  0  0  0  0  0  0  0  0  0  0  0
   -0.7691   -0.9713    0.3138 C   0  0  0  0  0  0  0  0  0  0  0  0
   -1.3749    0.1338   -0.4901 C   0  0  0  0  0  0  0  0  0  0  0  0
   -2.1070    1.1128    0.0096 C   0  0  0  0  0  0  0  0  0  0  0  0
    2.3893    1.8046    0.0654 H   0  0  0  0  0  0  0  0  0  0  0  0
    0.6785    1.5681   -0.2968 H   0  0  0  0  0  0  0  0  0  0  0  0
    1.9091    0.8874   -1.3624 H   0  0  0  0  0  0  0  0  0  0  0  0
    2.6813   -0.5974    0.4824 H   0  0  0  0  0  0  0  0  0  0  0  0
    1.4273    0.0512    1.5370 H   0  0  0  0  0  0  0  0  0  0  0  0
    0.8182   -1.3515   -1.0979 H   0  0  0  0  0  0  0  0  0  0  0  0
    0.9726   -2.2051    0.4372 H   0  0  0  0  0  0  0  0  0  0  0  0
   -1.3374   -1.8830    0.1016 H   0  0  0  0  0  0  0  0  0  0  0  0
   -0.8734   -0.7553    1.3789 H   0  0  0  0  0  0  0  0  0  0  0  0
   -1.2028    0.0750   -1.5575 H   0  0  0  0  0  0  0  0  0  0  0  0
   -2.5451    1.8753   -0.6120 H   0  0  0  0  0  0  0  0  0  0  0  0
   -2.2963    1.1948    1.0677 H   0  0  0  0  0  0  0  0  0  0  0  0
  1  2  1  0  0  0  0
  2  3  1  0  0  0  0
  3  4  1  0  0  0  0
  4  5  1  0  0  0  0
  5  6  2  0  0  0  0
  1  7  1  0  0  0  0
  1  8  1  0  0  0  0
  1  9  1  0  0  0  0
  2 10  1  0  0  0  0
  2 11  1  0  0  0  0
  3 12  1  0  0  0  0
  3 13  1  0  0  0  0
  4 14  1  0  0  0  0
  4 15  1  0  0  0  0
  5 16  1  0  0  0  0
  6 17  1  0  0  0  0
  6 18  1  0  0  0  0
M  END
