 xtb: 6.7.1 (edcfbbe)
          04112514203D

 23 22  0     0  0            999 V2000
    2.9089   -0.5857    0.3980 C   0  0  0  0  0  0  0  0  0  0  0  0
    1.7803   -0.5359   -0.6261 C   0  0  0  0  0  0  0  0  0  0  0  0
    0.8355    0.6483   -0.4034 C   0  0  0  0  0  0  0  0  0  0  0  0
   -0.1014    0.4764    0.8014 C   0  0  0  0  0  0  0  0  0  0  0  0
   -1.5482    0.0802    0.4651 C   0  0  0  0  0  0  0  0  0  0  0  0
   -2.2852    1.1933   -0.2785 C   0  0  0  0  0  0  0  0  0  0  0  0
   -1.6267   -1.2295   -0.3158 C   0  0  0  0  0  0  0  0  0  0  0  0
    3.5563   -1.4386    0.2081 H   0  0  0  0  0  0  0  0  0  0  0  0
    3.5094    0.3200    0.3448 H   0  0  0  0  0  0  0  0  0  0  0  0
    2.5170   -0.6743    1.4083 H   0  0  0  0  0  0  0  0  0  0  0  0
    1.2165   -1.4688   -0.5904 H   0  0  0  0  0  0  0  0  0  0  0  0
    2.2187   -0.4525   -1.6237 H   0  0  0  0  0  0  0  0  0  0  0  0
    1.4433    1.5450   -0.2650 H   0  0  0  0  0  0  0  0  0  0  0  0
    0.2455    0.8020   -1.3072 H   0  0  0  0  0  0  0  0  0  0  0  0
    0.3107   -0.2814    1.4700 H   0  0  0  0  0  0  0  0  0  0  0  0
   -0.1405    1.4117    1.3642 H   0  0  0  0  0  0  0  0  0  0  0  0
   -2.0604   -0.0705    1.4238 H   0  0  0  0  0  0  0  0  0  0  0  0
   -2.2405    2.1228    0.2844 H   0  0  0  0  0  0  0  0  0  0  0  0
   -1.8503    1.3657   -1.2597 H   0  0  0  0  0  0  0  0  0  0  0  0
   -3.3302    0.9247   -0.4158 H   0  0  0  0  0  0  0  0  0  0  0  0
   -1.1255   -2.0283    0.2262 H   0  0  0  0  0  0  0  0  0  0  0  0
   -1.1630   -1.1270   -1.2934 H   0  0  0  0  0  0  0  0  0  0  0  0
   -2.6658   -1.5166   -0.4619 H   0  0  0  0  0  0  0  0  0  0  0  0
  1  2  1  0  0  0  0
  2  3  1  0  0  0  0
  3  4  1  0  0  0  0
  4  5  1  0  0  0  0
  5  6  1  0  0  0  0
  5  7  1  0  0  0  0
  1  8  1  0  0  0  0
  1  9  1  0  0  0  0
  1 10  1  0  0  0  0
  2 11  1  0  0  0  0
  2 12  1  0  0  0  0
  3 13  1  0  0  0  0
  3 14  1  0  0  0  0
  4 15  1  0  0  0  0
  4 16  1  0  0  0  0
  5 17  1  0  0  0  0
  6 18  1  0  0  0  0
  6 19  1  0  0  0  0
  6 20  1  0  0  0  0
  7 21  1  0  0  0  0
  7 22  1  0  0  0  0
  7 23  1  0  0  0  0
M  END
