 xtb: 6.7.1 (edcfbbe)
          04112514053D

 17 16  0     0  0            999 V2000
    3.4148   -0.7357   -0.0775 C   0  0  0  0  0  0  0  0  0  0  0  0
    1.8913   -0.6737   -0.0612 C   0  0  0  0  0  0  0  0  0  0  0  0
    1.4028    0.7686    0.0378 C   0  0  0  0  0  0  0  0  0  0  0  0
   -0.0671    0.9560    0.0633 C   0  0  0  0  0  0  0  0  0  0  0  0
   -1.0035   -0.0007    0.0083 C   0  0  0  0  0  0  0  0  0  0  0  0
   -2.4101    0.3177    0.0423 C   0  0  0  0  0  0  0  0  0  0  0  0
   -3.3195   -0.4924   -0.0031 O   0  0  0  0  0  0  0  0  0  0  0  0
    3.8259   -0.3036    0.8319 H   0  0  0  0  0  0  0  0  0  0  0  0
    3.7520   -1.7665   -0.1482 H   0  0  0  0  0  0  0  0  0  0  0  0
    3.8118   -0.1874   -0.9286 H   0  0  0  0  0  0  0  0  0  0  0  0
    1.5157   -1.2450    0.7895 H   0  0  0  0  0  0  0  0  0  0  0  0
    1.5015   -1.1289   -0.9733 H   0  0  0  0  0  0  0  0  0  0  0  0
    1.7977    1.3472   -0.8036 H   0  0  0  0  0  0  0  0  0  0  0  0
    1.8134    1.2329    0.9402 H   0  0  0  0  0  0  0  0  0  0  0  0
   -0.3936    1.9872    0.1346 H   0  0  0  0  0  0  0  0  0  0  0  0
   -0.7566   -1.0489   -0.0634 H   0  0  0  0  0  0  0  0  0  0  0  0
   -2.6424    1.3970    0.1159 H   0  0  0  0  0  0  0  0  0  0  0  0
  1  2  1  0  0  0  0
  2  3  1  0  0  0  0
  3  4  1  0  0  0  0
  4  5  2  0  0  0  0
  5  6  1  0  0  0  0
  6  7  2  0  0  0  0
  1  8  1  0  0  0  0
  1  9  1  0  0  0  0
  1 10  1  0  0  0  0
  2 11  1  0  0  0  0
  2 12  1  0  0  0  0
  3 13  1  0  0  0  0
  3 14  1  0  0  0  0
  4 15  1  0  0  0  0
  5 16  1  0  0  0  0
  6 17  1  0  0  0  0
M  END
