 xtb: 6.7.1 (edcfbbe)
          04112516353D

 13 12  0     0  0            999 V2000
    2.8637    0.0170    0.3697 C   0  0  0  0  0  0  0  0  0  0  0  0
    1.4891   -0.1273   -0.1813 C   0  0  0  0  0  0  0  0  0  0  0  0
    1.0376   -1.1365   -0.6743 O   0  0  0  0  0  0  0  0  0  0  0  0
    0.6228    1.1274   -0.0607 C   0  0  0  0  0  0  0  0  0  0  0  0
   -0.6946    0.8753   -0.5255 O   0  0  0  0  0  0  0  0  0  0  0  0
   -1.4228   -0.0149    0.2017 N   0  0  0  0  0  0  0  0  0  0  0  0
   -0.9682   -0.3800    1.2416 O   0  0  0  0  0  0  0  0  0  0  0  0
   -2.4661   -0.3047   -0.2914 O   0  0  0  0  0  0  0  0  0  0  0  0
    2.8008   -0.0738    1.4532 H   0  0  0  0  0  0  0  0  0  0  0  0
    3.5007   -0.7783   -0.0052 H   0  0  0  0  0  0  0  0  0  0  0  0
    3.2789    0.9913    0.1351 H   0  0  0  0  0  0  0  0  0  0  0  0
    0.9926    1.9133   -0.7198 H   0  0  0  0  0  0  0  0  0  0  0  0
    0.6111    1.4764    0.9763 H   0  0  0  0  0  0  0  0  0  0  0  0
  1  2  1  0  0  0  0
  2  3  2  0  0  0  0
  2  4  1  0  0  0  0
  4  5  1  0  0  0  0
  5  6  1  0  0  0  0
  6  7  4  0  0  0  0
  6  8  4  0  0  0  0
  1  9  1  0  0  0  0
  1 10  1  0  0  0  0
  1 11  1  0  0  0  0
  4 12  1  0  0  0  0
  4 13  1  0  0  0  0
M  END
