 xtb: 6.7.1 (edcfbbe)
          04112516153D

 26 25  0     0  0            999 V2000
    1.8042    0.0492   -1.7649 C   0  0  0  0  0  0  0  0  0  0  0  0
    1.9916   -0.5815   -0.3906 C   0  0  0  0  0  0  0  0  0  0  0  0
    3.3800   -1.2016   -0.2688 C   0  0  0  0  0  0  0  0  0  0  0  0
    0.9378   -1.6165   -0.1287 C   0  0  0  0  0  0  0  0  0  0  0  0
   -0.3157   -1.5221   -0.0281 N   0  0  0  0  0  0  0  0  0  0  0  0
   -0.8715   -0.2331   -0.1691 O   0  0  0  0  0  0  0  0  0  0  0  0
   -2.2342   -0.2074    0.0326 C   0  0  0  0  0  0  0  0  0  0  0  0
   -2.9050   -1.1898    0.2553 O   0  0  0  0  0  0  0  0  0  0  0  0
   -2.6748    1.0482   -0.0704 N   0  0  0  0  0  0  0  0  0  0  0  0
   -4.0652    1.4046    0.1096 C   0  0  0  0  0  0  0  0  0  0  0  0
    1.8692    0.6655    1.0080 S   0  0  0  0  0  0  0  0  0  0  0  0
    1.2280    2.1895    0.2550 C   0  0  0  0  0  0  0  0  0  0  0  0
    0.8039    0.4548   -1.8872 H   0  0  0  0  0  0  0  0  0  0  0  0
    2.5383    0.8340   -1.9248 H   0  0  0  0  0  0  0  0  0  0  0  0
    1.9522   -0.7213   -2.5196 H   0  0  0  0  0  0  0  0  0  0  0  0
    3.5221   -1.6172    0.7263 H   0  0  0  0  0  0  0  0  0  0  0  0
    4.1395   -0.4418   -0.4334 H   0  0  0  0  0  0  0  0  0  0  0  0
    3.5043   -1.9922   -1.0054 H   0  0  0  0  0  0  0  0  0  0  0  0
    1.2729   -2.6352    0.0166 H   0  0  0  0  0  0  0  0  0  0  0  0
   -2.0116    1.7908   -0.2299 H   0  0  0  0  0  0  0  0  0  0  0  0
   -4.6247    0.4875    0.2802 H   0  0  0  0  0  0  0  0  0  0  0  0
   -4.4409    1.9007   -0.7838 H   0  0  0  0  0  0  0  0  0  0  0  0
   -4.1768    2.0634    0.9697 H   0  0  0  0  0  0  0  0  0  0  0  0
    1.0674    2.8629    1.0904 H   0  0  0  0  0  0  0  0  0  0  0  0
    0.2900    1.9781   -0.2452 H   0  0  0  0  0  0  0  0  0  0  0  0
    1.9598    2.6075   -0.4271 H   0  0  0  0  0  0  0  0  0  0  0  0
  1  2  1  0  0  0  0
  2  3  1  0  0  0  0
  2  4  1  0  0  0  0
  4  5  2  0  0  0  0
  5  6  1  0  0  0  0
  6  7  1  0  0  0  0
  7  8  2  0  0  0  0
  7  9  4  0  0  0  0
  9 10  1  0  0  0  0
  2 11  1  0  0  0  0
 11 12  1  0  0  0  0
  1 13  1  0  0  0  0
  1 14  1  0  0  0  0
  1 15  1  0  0  0  0
  3 16  1  0  0  0  0
  3 17  1  0  0  0  0
  3 18  1  0  0  0  0
  4 19  1  0  0  0  0
  9 20  1  0  0  0  0
 10 21  1  0  0  0  0
 10 22  1  0  0  0  0
 10 23  1  0  0  0  0
 12 24  1  0  0  0  0
 12 25  1  0  0  0  0
 12 26  1  0  0  0  0
M  END
