 xtb: 6.7.1 (edcfbbe)
          04112516113D

 20 19  0     0  0            999 V2000
    3.9680    0.2947    0.1161 C   0  0  0  0  0  0  0  0  0  0  0  0
    2.6136    0.0514   -0.4685 C   0  0  0  0  0  0  0  0  0  0  0  0
    2.3161    0.1817   -1.6359 O   0  0  0  0  0  0  0  0  0  0  0  0
    1.7415   -0.3455    0.4645 O   0  0  0  0  0  0  0  0  0  0  0  0
    0.4067   -0.6298    0.0594 C   0  0  0  0  0  0  0  0  0  0  0  0
   -0.4154    0.6595   -0.0507 C   0  0  0  0  0  0  0  0  0  0  0  0
   -1.7501    0.3775   -0.4576 O   0  0  0  0  0  0  0  0  0  0  0  0
   -2.6132   -0.0550    0.4686 C   0  0  0  0  0  0  0  0  0  0  0  0
   -2.3110   -0.2058    1.6321 O   0  0  0  0  0  0  0  0  0  0  0  0
   -3.9591   -0.3240   -0.1236 C   0  0  0  0  0  0  0  0  0  0  0  0
    3.9548    0.0840    1.1795 H   0  0  0  0  0  0  0  0  0  0  0  0
    4.2499    1.3290   -0.0639 H   0  0  0  0  0  0  0  0  0  0  0  0
    4.6919   -0.3383   -0.3906 H   0  0  0  0  0  0  0  0  0  0  0  0
    0.4150   -1.1417   -0.9086 H   0  0  0  0  0  0  0  0  0  0  0  0
   -0.0049   -1.2756    0.8368 H   0  0  0  0  0  0  0  0  0  0  0  0
   -0.0032    1.3060   -0.8272 H   0  0  0  0  0  0  0  0  0  0  0  0
   -0.4238    1.1711    0.9174 H   0  0  0  0  0  0  0  0  0  0  0  0
   -4.7242   -0.2047    0.6367 H   0  0  0  0  0  0  0  0  0  0  0  0
   -3.9766   -1.3529   -0.4773 H   0  0  0  0  0  0  0  0  0  0  0  0
   -4.1307    0.3361   -0.9671 H   0  0  0  0  0  0  0  0  0  0  0  0
  1  2  1  0  0  0  0
  2  3  2  0  0  0  0
  2  4  1  0  0  0  0
  4  5  1  0  0  0  0
  5  6  1  0  0  0  0
  6  7  1  0  0  0  0
  7  8  1  0  0  0  0
  8  9  2  0  0  0  0
  8 10  1  0  0  0  0
  1 11  1  0  0  0  0
  1 12  1  0  0  0  0
  1 13  1  0  0  0  0
  5 14  1  0  0  0  0
  5 15  1  0  0  0  0
  6 16  1  0  0  0  0
  6 17  1  0  0  0  0
 10 18  1  0  0  0  0
 10 19  1  0  0  0  0
 10 20  1  0  0  0  0
M  END
