 xtb: 6.7.1 (edcfbbe)
          04112516013D

 20 19  0     0  0            999 V2000
   -3.5942   -0.7476   -0.0472 C   0  0  0  0  0  0  0  0  0  0  0  0
   -2.1573   -0.3861   -0.4029 C   0  0  0  0  0  0  0  0  0  0  0  0
   -1.6110    0.7080    0.5129 C   0  0  0  0  0  0  0  0  0  0  0  0
   -0.1776    1.0840    0.1679 C   0  0  0  0  0  0  0  0  0  0  0  0
    0.6751   -0.0326    0.4617 O   0  0  0  0  0  0  0  0  0  0  0  0
    1.8744   -0.0729   -0.1028 C   0  0  0  0  0  0  0  0  0  0  0  0
    2.2900    0.7943   -0.8456 O   0  0  0  0  0  0  0  0  0  0  0  0
    2.6260   -1.3129    0.2771 C   0  0  0  0  0  0  0  0  0  0  0  0
   -3.9642   -1.5275   -0.7073 H   0  0  0  0  0  0  0  0  0  0  0  0
   -3.6541   -1.1065    0.9773 H   0  0  0  0  0  0  0  0  0  0  0  0
   -4.2403    0.1215   -0.1449 H   0  0  0  0  0  0  0  0  0  0  0  0
   -1.5246   -1.2712   -0.3158 H   0  0  0  0  0  0  0  0  0  0  0  0
   -2.1129   -0.0437   -1.4393 H   0  0  0  0  0  0  0  0  0  0  0  0
   -2.2258    1.6042    0.4266 H   0  0  0  0  0  0  0  0  0  0  0  0
   -1.6413    0.3662    1.5482 H   0  0  0  0  0  0  0  0  0  0  0  0
   -0.0678    1.3378   -0.8919 H   0  0  0  0  0  0  0  0  0  0  0  0
    0.1630    1.9371    0.7636 H   0  0  0  0  0  0  0  0  0  0  0  0
    2.1776   -1.7629    1.1560 H   0  0  0  0  0  0  0  0  0  0  0  0
    3.6692   -1.0658    0.4498 H   0  0  0  0  0  0  0  0  0  0  0  0
    2.5775   -2.0127   -0.5546 H   0  0  0  0  0  0  0  0  0  0  0  0
  1  2  1  0  0  0  0
  2  3  1  0  0  0  0
  3  4  1  0  0  0  0
  4  5  1  0  0  0  0
  5  6  1  0  0  0  0
  6  7  2  0  0  0  0
  6  8  1  0  0  0  0
  1  9  1  0  0  0  0
  1 10  1  0  0  0  0
  1 11  1  0  0  0  0
  2 12  1  0  0  0  0
  2 13  1  0  0  0  0
  3 14  1  0  0  0  0
  3 15  1  0  0  0  0
  4 16  1  0  0  0  0
  4 17  1  0  0  0  0
  8 18  1  0  0  0  0
  8 19  1  0  0  0  0
  8 20  1  0  0  0  0
M  END
