 xtb: 6.7.1 (edcfbbe)
          04112516423D

 26 25  0     0  0            999 V2000
    1.5507   -1.0232   -1.7241 C   0  0  0  0  0  0  0  0  0  0  0  0
    1.8803   -0.6435   -0.2800 C   0  0  0  0  0  0  0  0  0  0  0  0
    3.2326   -1.2138    0.1254 C   0  0  0  0  0  0  0  0  0  0  0  0
    0.8117   -1.0624    0.6744 C   0  0  0  0  0  0  0  0  0  0  0  0
   -0.4335   -0.8441    0.6733 N   0  0  0  0  0  0  0  0  0  0  0  0
   -0.9530   -0.0954   -0.4023 O   0  0  0  0  0  0  0  0  0  0  0  0
   -2.3022    0.1413   -0.3482 C   0  0  0  0  0  0  0  0  0  0  0  0
   -2.7849    0.7685   -1.2733 O   0  0  0  0  0  0  0  0  0  0  0  0
   -2.9434   -0.3411    0.7081 N   0  0  0  0  0  0  0  0  0  0  0  0
   -4.3662   -0.1852    0.9050 C   0  0  0  0  0  0  0  0  0  0  0  0
    1.9267    1.2267   -0.2573 S   0  0  0  0  0  0  0  0  0  0  0  0
    2.3956    1.5878    1.4659 C   0  0  0  0  0  0  0  0  0  0  0  0
    2.3566   -0.6972   -2.3764 H   0  0  0  0  0  0  0  0  0  0  0  0
    1.4386   -2.1020   -1.8059 H   0  0  0  0  0  0  0  0  0  0  0  0
    0.6297   -0.5465   -2.0511 H   0  0  0  0  0  0  0  0  0  0  0  0
    4.0147   -0.7810   -0.4930 H   0  0  0  0  0  0  0  0  0  0  0  0
    3.2292   -2.2916   -0.0211 H   0  0  0  0  0  0  0  0  0  0  0  0
    3.4545   -1.0067    1.1687 H   0  0  0  0  0  0  0  0  0  0  0  0
    1.1213   -1.6283    1.5450 H   0  0  0  0  0  0  0  0  0  0  0  0
   -2.4011   -0.8528    1.3927 H   0  0  0  0  0  0  0  0  0  0  0  0
   -4.8468   -1.1616    0.9441 H   0  0  0  0  0  0  0  0  0  0  0  0
   -4.7625    0.3821    0.0651 H   0  0  0  0  0  0  0  0  0  0  0  0
   -4.5573    0.3542    1.8314 H   0  0  0  0  0  0  0  0  0  0  0  0
    2.3507    2.6686    1.5495 H   0  0  0  0  0  0  0  0  0  0  0  0
    3.4066    1.2453    1.6568 H   0  0  0  0  0  0  0  0  0  0  0  0
    1.6830    1.1338    2.1464 H   0  0  0  0  0  0  0  0  0  0  0  0
  1  2  1  0  0  0  0
  2  3  1  0  0  0  0
  2  4  1  0  0  0  0
  4  5  2  0  0  0  0
  5  6  1  0  0  0  0
  6  7  1  0  0  0  0
  7  8  2  0  0  0  0
  7  9  4  0  0  0  0
  9 10  1  0  0  0  0
  2 11  1  0  0  0  0
 11 12  1  0  0  0  0
  1 13  1  0  0  0  0
  1 14  1  0  0  0  0
  1 15  1  0  0  0  0
  3 16  1  0  0  0  0
  3 17  1  0  0  0  0
  3 18  1  0  0  0  0
  4 19  1  0  0  0  0
  9 20  1  0  0  0  0
 10 21  1  0  0  0  0
 10 22  1  0  0  0  0
 10 23  1  0  0  0  0
 12 24  1  0  0  0  0
 12 25  1  0  0  0  0
 12 26  1  0  0  0  0
M  END
