 xtb: 6.7.1 (edcfbbe)
          04112516113D

 17 16  0     0  0            999 V2000
   -1.8219   -0.9760   -0.4562 C   0  0  0  0  0  0  0  0  0  0  0  0
   -2.0773    0.4690   -0.0455 C   0  0  0  0  0  0  0  0  0  0  0  0
   -0.9249    1.0792    0.7522 C   0  0  0  0  0  0  0  0  0  0  0  0
    0.3850    1.1342   -0.0382 C   0  0  0  0  0  0  0  0  0  0  0  0
    1.1549   -0.1571    0.0250 C   0  0  0  0  0  0  0  0  0  0  0  0
    1.2444   -0.8695    1.0021 O   0  0  0  0  0  0  0  0  0  0  0  0
    1.7811   -0.4316   -1.1122 O   0  0  0  0  0  0  0  0  0  0  0  0
   -1.0073   -1.0376   -1.1742 H   0  0  0  0  0  0  0  0  0  0  0  0
   -1.5580   -1.5779    0.4112 H   0  0  0  0  0  0  0  0  0  0  0  0
   -2.7101   -1.4023   -0.9161 H   0  0  0  0  0  0  0  0  0  0  0  0
   -2.9782    0.5098    0.5699 H   0  0  0  0  0  0  0  0  0  0  0  0
   -2.2573    1.0719   -0.9382 H   0  0  0  0  0  0  0  0  0  0  0  0
   -1.2037    2.0908    1.0488 H   0  0  0  0  0  0  0  0  0  0  0  0
   -0.7545    0.4936    1.6584 H   0  0  0  0  0  0  0  0  0  0  0  0
    1.0407    1.8905    0.4003 H   0  0  0  0  0  0  0  0  0  0  0  0
    0.2157    1.3942   -1.0826 H   0  0  0  0  0  0  0  0  0  0  0  0
    2.3238   -1.2419   -1.0583 H   0  0  0  0  0  0  0  0  0  0  0  0
  1  2  1  0  0  0  0
  2  3  1  0  0  0  0
  3  4  1  0  0  0  0
  4  5  1  0  0  0  0
  5  6  2  0  0  0  0
  5  7  1  0  0  0  0
  1  8  1  0  0  0  0
  1  9  1  0  0  0  0
  1 10  1  0  0  0  0
  2 11  1  0  0  0  0
  2 12  1  0  0  0  0
  3 13  1  0  0  0  0
  3 14  1  0  0  0  0
  4 15  1  0  0  0  0
  4 16  1  0  0  0  0
  7 17  1  0  0  0  0
M  END
