 xtb: 6.7.1 (edcfbbe)
          04112516123D

 19 18  0     0  0            999 V2000
   -3.1033    0.4306   -0.0015 C   0  0  0  0  0  0  0  0  0  0  0  0
   -2.0795   -0.6687    0.2615 C   0  0  0  0  0  0  0  0  0  0  0  0
   -0.7222   -0.3963   -0.3876 C   0  0  0  0  0  0  0  0  0  0  0  0
    0.0094    0.7981    0.2209 C   0  0  0  0  0  0  0  0  0  0  0  0
    1.4198    0.9545   -0.3608 C   0  0  0  0  0  0  0  0  0  0  0  0
    2.2736   -0.1621   -0.0092 C   0  0  0  0  0  0  0  0  0  0  0  0
    2.9662   -1.0887    0.2988 C   0  0  0  0  0  0  0  0  0  0  0  0
   -3.2180    0.5945   -1.0708 H   0  0  0  0  0  0  0  0  0  0  0  0
   -2.8000    1.3659    0.4613 H   0  0  0  0  0  0  0  0  0  0  0  0
   -4.0707    0.1493    0.4078 H   0  0  0  0  0  0  0  0  0  0  0  0
   -1.9447   -0.7899    1.3388 H   0  0  0  0  0  0  0  0  0  0  0  0
   -2.4673   -1.6121   -0.1300 H   0  0  0  0  0  0  0  0  0  0  0  0
   -0.8635   -0.2280   -1.4583 H   0  0  0  0  0  0  0  0  0  0  0  0
   -0.0924   -1.2823   -0.2720 H   0  0  0  0  0  0  0  0  0  0  0  0
    0.0797    0.6661    1.3032 H   0  0  0  0  0  0  0  0  0  0  0  0
   -0.5475    1.7155    0.0252 H   0  0  0  0  0  0  0  0  0  0  0  0
    1.8758    1.8725    0.0196 H   0  0  0  0  0  0  0  0  0  0  0  0
    1.3631    1.0255   -1.4504 H   0  0  0  0  0  0  0  0  0  0  0  0
    3.5797   -1.8974    0.5619 H   0  0  0  0  0  0  0  0  0  0  0  0
  1  2  1  0  0  0  0
  2  3  1  0  0  0  0
  3  4  1  0  0  0  0
  4  5  1  0  0  0  0
  5  6  1  0  0  0  0
  6  7  3  0  0  0  0
  1  8  1  0  0  0  0
  1  9  1  0  0  0  0
  1 10  1  0  0  0  0
  2 11  1  0  0  0  0
  2 12  1  0  0  0  0
  3 13  1  0  0  0  0
  3 14  1  0  0  0  0
  4 15  1  0  0  0  0
  4 16  1  0  0  0  0
  5 17  1  0  0  0  0
  5 18  1  0  0  0  0
  7 19  1  0  0  0  0
M  END
