 xtb: 6.7.1 (edcfbbe)
          04112517153D

 20 19  0     0  0            999 V2000
   -3.6857    0.3965    0.5381 C   0  0  0  0  0  0  0  0  0  0  0  0
   -2.6256   -0.5630    0.0103 C   0  0  0  0  0  0  0  0  0  0  0  0
   -1.2420    0.0829    0.0046 C   0  0  0  0  0  0  0  0  0  0  0  0
   -0.1722   -0.8822   -0.5274 C   0  0  0  0  0  0  0  0  0  0  0  0
    1.1599   -0.1842   -0.5304 C   0  0  0  0  0  0  0  0  0  0  0  0
    1.6256    0.4292   -1.4682 O   0  0  0  0  0  0  0  0  0  0  0  0
    1.7681   -0.2850    0.6458 O   0  0  0  0  0  0  0  0  0  0  0  0
    3.0233    0.3812    0.8056 C   0  0  0  0  0  0  0  0  0  0  0  0
   -3.7335    1.2893   -0.0811 H   0  0  0  0  0  0  0  0  0  0  0  0
   -4.6634   -0.0779    0.5337 H   0  0  0  0  0  0  0  0  0  0  0  0
   -3.4537    0.6984    1.5566 H   0  0  0  0  0  0  0  0  0  0  0  0
   -2.6022   -1.4584    0.6339 H   0  0  0  0  0  0  0  0  0  0  0  0
   -2.8848   -0.8689   -1.0049 H   0  0  0  0  0  0  0  0  0  0  0  0
   -0.9760    0.3854    1.0195 H   0  0  0  0  0  0  0  0  0  0  0  0
   -1.2579    0.9777   -0.6218 H   0  0  0  0  0  0  0  0  0  0  0  0
   -0.4154   -1.1778   -1.5475 H   0  0  0  0  0  0  0  0  0  0  0  0
   -0.1148   -1.7584    0.1168 H   0  0  0  0  0  0  0  0  0  0  0  0
    3.6877    0.1285   -0.0215 H   0  0  0  0  0  0  0  0  0  0  0  0
    3.4234    0.0317    1.7521 H   0  0  0  0  0  0  0  0  0  0  0  0
    2.8703    1.4608    0.8214 H   0  0  0  0  0  0  0  0  0  0  0  0
  1  2  1  0  0  0  0
  2  3  1  0  0  0  0
  3  4  1  0  0  0  0
  4  5  1  0  0  0  0
  5  6  2  0  0  0  0
  5  7  1  0  0  0  0
  7  8  1  0  0  0  0
  1  9  1  0  0  0  0
  1 10  1  0  0  0  0
  1 11  1  0  0  0  0
  2 12  1  0  0  0  0
  2 13  1  0  0  0  0
  3 14  1  0  0  0  0
  3 15  1  0  0  0  0
  4 16  1  0  0  0  0
  4 17  1  0  0  0  0
  8 18  1  0  0  0  0
  8 19  1  0  0  0  0
  8 20  1  0  0  0  0
M  END
