 xtb: 6.7.1 (edcfbbe)
          04112516123D

 19 18  0     0  0            999 V2000
   -1.8442   -1.1850   -0.4210 C   0  0  0  0  0  0  0  0  0  0  0  0
   -1.4696   -0.2344    0.7101 C   0  0  0  0  0  0  0  0  0  0  0  0
   -1.1573    1.1817    0.2253 C   0  0  0  0  0  0  0  0  0  0  0  0
    0.0745    1.3040   -0.6729 C   0  0  0  0  0  0  0  0  0  0  0  0
    1.3922    0.9486    0.0317 C   0  0  0  0  0  0  0  0  0  0  0  0
    1.6409   -0.4777    0.0825 C   0  0  0  0  0  0  0  0  0  0  0  0
    1.8679   -1.6533    0.0927 C   0  0  0  0  0  0  0  0  0  0  0  0
   -2.1679   -2.1407   -0.0159 H   0  0  0  0  0  0  0  0  0  0  0  0
   -0.9913   -1.3670   -1.0697 H   0  0  0  0  0  0  0  0  0  0  0  0
   -2.6553   -0.7710   -1.0163 H   0  0  0  0  0  0  0  0  0  0  0  0
   -2.3040   -0.1759    1.4136 H   0  0  0  0  0  0  0  0  0  0  0  0
   -0.6099   -0.6377    1.2473 H   0  0  0  0  0  0  0  0  0  0  0  0
   -1.0179    1.8250    1.0984 H   0  0  0  0  0  0  0  0  0  0  0  0
   -2.0222    1.5607   -0.3257 H   0  0  0  0  0  0  0  0  0  0  0  0
    0.1396    2.3414   -1.0096 H   0  0  0  0  0  0  0  0  0  0  0  0
   -0.0438    0.6776   -1.5581 H   0  0  0  0  0  0  0  0  0  0  0  0
    1.3859    1.3469    1.0500 H   0  0  0  0  0  0  0  0  0  0  0  0
    2.2243    1.4102   -0.5077 H   0  0  0  0  0  0  0  0  0  0  0  0
    2.0513   -2.6855    0.1171 H   0  0  0  0  0  0  0  0  0  0  0  0
  1  2  1  0  0  0  0
  2  3  1  0  0  0  0
  3  4  1  0  0  0  0
  4  5  1  0  0  0  0
  5  6  1  0  0  0  0
  6  7  3  0  0  0  0
  1  8  1  0  0  0  0
  1  9  1  0  0  0  0
  1 10  1  0  0  0  0
  2 11  1  0  0  0  0
  2 12  1  0  0  0  0
  3 13  1  0  0  0  0
  3 14  1  0  0  0  0
  4 15  1  0  0  0  0
  4 16  1  0  0  0  0
  5 17  1  0  0  0  0
  5 18  1  0  0  0  0
  7 19  1  0  0  0  0
M  END
