 xtb: 6.7.1 (edcfbbe)
          04112516203D

 17 16  0     0  0            999 V2000
   -3.4119   -0.3906    0.6048 C   0  0  0  0  0  0  0  0  0  0  0  0
   -2.2531   -0.5821   -0.3671 C   0  0  0  0  0  0  0  0  0  0  0  0
   -1.6577    0.7465   -0.8396 C   0  0  0  0  0  0  0  0  0  0  0  0
   -0.8183    1.4571    0.2340 C   0  0  0  0  0  0  0  0  0  0  0  0
    0.6742    1.3963   -0.0264 C   0  0  0  0  0  0  0  0  0  0  0  0
    1.3771   -0.4491    0.0184 Br  0  0  0  0  0  0  0  0  0  0  0  0
   -4.2121    0.1759    0.1335 H   0  0  0  0  0  0  0  0  0  0  0  0
   -3.0954    0.1444    1.4969 H   0  0  0  0  0  0  0  0  0  0  0  0
   -3.8085   -1.3552    0.9117 H   0  0  0  0  0  0  0  0  0  0  0  0
   -1.4768   -1.1887    0.1023 H   0  0  0  0  0  0  0  0  0  0  0  0
   -2.6131   -1.1320   -1.2391 H   0  0  0  0  0  0  0  0  0  0  0  0
   -1.0345    0.5601   -1.7171 H   0  0  0  0  0  0  0  0  0  0  0  0
   -2.4749    1.3963   -1.1560 H   0  0  0  0  0  0  0  0  0  0  0  0
   -1.0778    2.5172    0.2725 H   0  0  0  0  0  0  0  0  0  0  0  0
   -1.0299    1.0303    1.2155 H   0  0  0  0  0  0  0  0  0  0  0  0
    1.2384    1.9317    0.7353 H   0  0  0  0  0  0  0  0  0  0  0  0
    0.9293    1.7745   -1.0149 H   0  0  0  0  0  0  0  0  0  0  0  0
  1  2  1  0  0  0  0
  2  3  1  0  0  0  0
  3  4  1  0  0  0  0
  4  5  1  0  0  0  0
  5  6  1  0  0  0  0
  1  7  1  0  0  0  0
  1  8  1  0  0  0  0
  1  9  1  0  0  0  0
  2 10  1  0  0  0  0
  2 11  1  0  0  0  0
  3 12  1  0  0  0  0
  3 13  1  0  0  0  0
  4 14  1  0  0  0  0
  4 15  1  0  0  0  0
  5 16  1  0  0  0  0
  5 17  1  0  0  0  0
M  END
