 xtb: 6.7.1 (edcfbbe)
          04112516113D

 17 16  0     0  0            999 V2000
   -3.5781   -0.2762    0.5500 C   0  0  0  0  0  0  0  0  0  0  0  0
   -2.3701   -0.6770   -0.2889 C   0  0  0  0  0  0  0  0  0  0  0  0
   -1.6379    0.5294   -0.8790 C   0  0  0  0  0  0  0  0  0  0  0  0
   -0.8768    1.3482    0.1772 C   0  0  0  0  0  0  0  0  0  0  0  0
    0.6196    1.3844   -0.0624 C   0  0  0  0  0  0  0  0  0  0  0  0
    1.4264   -0.4135    0.0829 Br  0  0  0  0  0  0  0  0  0  0  0  0
   -4.2942    0.2730   -0.0573 H   0  0  0  0  0  0  0  0  0  0  0  0
   -3.2857    0.3544    1.3860 H   0  0  0  0  0  0  0  0  0  0  0  0
   -4.0711   -1.1599    0.9471 H   0  0  0  0  0  0  0  0  0  0  0  0
   -1.6747   -1.2613    0.3180 H   0  0  0  0  0  0  0  0  0  0  0  0
   -2.7055   -1.3168   -1.1077 H   0  0  0  0  0  0  0  0  0  0  0  0
   -0.9345    0.1692   -1.6328 H   0  0  0  0  0  0  0  0  0  0  0  0
   -2.3630    1.1636   -1.3911 H   0  0  0  0  0  0  0  0  0  0  0  0
   -1.2202    2.3845    0.1770 H   0  0  0  0  0  0  0  0  0  0  0  0
   -1.0654    0.9391    1.1713 H   0  0  0  0  0  0  0  0  0  0  0  0
    1.1361    1.9895    0.6806 H   0  0  0  0  0  0  0  0  0  0  0  0
    0.8657    1.7306   -1.0647 H   0  0  0  0  0  0  0  0  0  0  0  0
  1  2  1  0  0  0  0
  2  3  1  0  0  0  0
  3  4  1  0  0  0  0
  4  5  1  0  0  0  0
  5  6  1  0  0  0  0
  1  7  1  0  0  0  0
  1  8  1  0  0  0  0
  1  9  1  0  0  0  0
  2 10  1  0  0  0  0
  2 11  1  0  0  0  0
  3 12  1  0  0  0  0
  3 13  1  0  0  0  0
  4 14  1  0  0  0  0
  4 15  1  0  0  0  0
  5 16  1  0  0  0  0
  5 17  1  0  0  0  0
M  END
