 xtb: 6.7.1 (edcfbbe)
          04112516333D

 17 16  0     0  0            999 V2000
   -3.4328   -1.1547    0.1385 C   0  0  0  0  0  0  0  0  0  0  0  0
   -3.1435    0.1821   -0.5355 C   0  0  0  0  0  0  0  0  0  0  0  0
   -2.2961    1.1231    0.3239 C   0  0  0  0  0  0  0  0  0  0  0  0
   -0.9128    0.5857    0.7017 C   0  0  0  0  0  0  0  0  0  0  0  0
   -0.0467    0.3541   -0.5208 C   0  0  0  0  0  0  0  0  0  0  0  0
    1.7782   -0.1932   -0.0025 Br  0  0  0  0  0  0  0  0  0  0  0  0
   -2.5269   -1.7438    0.2561 H   0  0  0  0  0  0  0  0  0  0  0  0
   -4.1320   -1.7325   -0.4608 H   0  0  0  0  0  0  0  0  0  0  0  0
   -3.8719   -0.9974    1.1209 H   0  0  0  0  0  0  0  0  0  0  0  0
   -2.6544    0.0098   -1.4960 H   0  0  0  0  0  0  0  0  0  0  0  0
   -4.0912    0.6837   -0.7420 H   0  0  0  0  0  0  0  0  0  0  0  0
   -2.1737    2.0691   -0.2085 H   0  0  0  0  0  0  0  0  0  0  0  0
   -2.8354    1.3316    1.2497 H   0  0  0  0  0  0  0  0  0  0  0  0
   -0.4239    1.3141    1.3529 H   0  0  0  0  0  0  0  0  0  0  0  0
   -1.0115   -0.3441    1.2638 H   0  0  0  0  0  0  0  0  0  0  0  0
    0.0756    1.2611   -1.1105 H   0  0  0  0  0  0  0  0  0  0  0  0
   -0.4181   -0.4536   -1.1472 H   0  0  0  0  0  0  0  0  0  0  0  0
  1  2  1  0  0  0  0
  2  3  1  0  0  0  0
  3  4  1  0  0  0  0
  4  5  1  0  0  0  0
  5  6  1  0  0  0  0
  1  7  1  0  0  0  0
  1  8  1  0  0  0  0
  1  9  1  0  0  0  0
  2 10  1  0  0  0  0
  2 11  1  0  0  0  0
  3 12  1  0  0  0  0
  3 13  1  0  0  0  0
  4 14  1  0  0  0  0
  4 15  1  0  0  0  0
  5 16  1  0  0  0  0
  5 17  1  0  0  0  0
M  END
