 xtb: 6.7.1 (edcfbbe)
          04112516213D

 19 18  0     0  0            999 V2000
   -2.6326   -0.8177   -0.4825 C   0  0  0  0  0  0  0  0  0  0  0  0
   -2.1695    0.2421    0.5131 C   0  0  0  0  0  0  0  0  0  0  0  0
   -1.1554    1.2324   -0.0793 C   0  0  0  0  0  0  0  0  0  0  0  0
    0.3012    0.9280    0.2744 C   0  0  0  0  0  0  0  0  0  0  0  0
    0.8045   -0.3977   -0.3063 C   0  0  0  0  0  0  0  0  0  0  0  0
    2.2197   -0.5731   -0.0509 C   0  0  0  0  0  0  0  0  0  0  0  0
    3.3894   -0.6977    0.1714 C   0  0  0  0  0  0  0  0  0  0  0  0
   -1.7995   -1.4078   -0.8533 H   0  0  0  0  0  0  0  0  0  0  0  0
   -3.1222   -0.3474   -1.3327 H   0  0  0  0  0  0  0  0  0  0  0  0
   -3.3445   -1.4916   -0.0106 H   0  0  0  0  0  0  0  0  0  0  0  0
   -3.0493    0.7922    0.8540 H   0  0  0  0  0  0  0  0  0  0  0  0
   -1.7355   -0.2432    1.3897 H   0  0  0  0  0  0  0  0  0  0  0  0
   -1.3770    2.2354    0.2918 H   0  0  0  0  0  0  0  0  0  0  0  0
   -1.2655    1.2574   -1.1655 H   0  0  0  0  0  0  0  0  0  0  0  0
    0.4157    0.9088    1.3610 H   0  0  0  0  0  0  0  0  0  0  0  0
    0.9304    1.7366   -0.1069 H   0  0  0  0  0  0  0  0  0  0  0  0
    0.6377   -0.4144   -1.3870 H   0  0  0  0  0  0  0  0  0  0  0  0
    0.2660   -1.2349    0.1432 H   0  0  0  0  0  0  0  0  0  0  0  0
    4.4138   -0.8168    0.3607 H   0  0  0  0  0  0  0  0  0  0  0  0
  1  2  1  0  0  0  0
  2  3  1  0  0  0  0
  3  4  1  0  0  0  0
  4  5  1  0  0  0  0
  5  6  1  0  0  0  0
  6  7  3  0  0  0  0
  1  8  1  0  0  0  0
  1  9  1  0  0  0  0
  1 10  1  0  0  0  0
  2 11  1  0  0  0  0
  2 12  1  0  0  0  0
  3 13  1  0  0  0  0
  3 14  1  0  0  0  0
  4 15  1  0  0  0  0
  4 16  1  0  0  0  0
  5 17  1  0  0  0  0
  5 18  1  0  0  0  0
  7 19  1  0  0  0  0
M  END
