 xtb: 6.7.1 (edcfbbe)
          04112516113D

 17 16  0     0  0            999 V2000
   -2.3525   -0.7032    0.3637 C   0  0  0  0  0  0  0  0  0  0  0  0
   -1.6441    0.0788   -0.7369 C   0  0  0  0  0  0  0  0  0  0  0  0
   -0.8279    1.2590   -0.2057 C   0  0  0  0  0  0  0  0  0  0  0  0
    0.2826    0.8383    0.7699 C   0  0  0  0  0  0  0  0  0  0  0  0
    1.1811   -0.2170    0.1746 C   0  0  0  0  0  0  0  0  0  0  0  0
    1.2505   -1.3512    0.5922 O   0  0  0  0  0  0  0  0  0  0  0  0
    1.9225    0.1490   -0.8693 O   0  0  0  0  0  0  0  0  0  0  0  0
   -1.6335   -1.2374    0.9805 H   0  0  0  0  0  0  0  0  0  0  0  0
   -2.9331   -0.0353    0.9958 H   0  0  0  0  0  0  0  0  0  0  0  0
   -3.0265   -1.4364   -0.0722 H   0  0  0  0  0  0  0  0  0  0  0  0
   -2.3877    0.4649   -1.4372 H   0  0  0  0  0  0  0  0  0  0  0  0
   -0.9899   -0.6008   -1.2898 H   0  0  0  0  0  0  0  0  0  0  0  0
   -0.3992    1.7934   -1.0552 H   0  0  0  0  0  0  0  0  0  0  0  0
   -1.4926    1.9477    0.3177 H   0  0  0  0  0  0  0  0  0  0  0  0
   -0.1529    0.4276    1.6797 H   0  0  0  0  0  0  0  0  0  0  0  0
    0.8838    1.7095    1.0357 H   0  0  0  0  0  0  0  0  0  0  0  0
    1.8137    1.0857   -1.1141 H   0  0  0  0  0  0  0  0  0  0  0  0
  1  2  1  0  0  0  0
  2  3  1  0  0  0  0
  3  4  1  0  0  0  0
  4  5  1  0  0  0  0
  5  6  2  0  0  0  0
  5  7  1  0  0  0  0
  1  8  1  0  0  0  0
  1  9  1  0  0  0  0
  1 10  1  0  0  0  0
  2 11  1  0  0  0  0
  2 12  1  0  0  0  0
  3 13  1  0  0  0  0
  3 14  1  0  0  0  0
  4 15  1  0  0  0  0
  4 16  1  0  0  0  0
  7 17  1  0  0  0  0
M  END
