 xtb: 6.7.1 (edcfbbe)
          04112516013D

 20 19  0     0  0            999 V2000
   -3.9921   -0.4062   -0.0924 C   0  0  0  0  0  0  0  0  0  0  0  0
   -2.7421    0.4659   -0.1050 C   0  0  0  0  0  0  0  0  0  0  0  0
   -1.4841   -0.3553    0.1695 C   0  0  0  0  0  0  0  0  0  0  0  0
   -0.2385    0.5199    0.1502 C   0  0  0  0  0  0  0  0  0  0  0  0
    0.9041   -0.2925    0.4538 O   0  0  0  0  0  0  0  0  0  0  0  0
    2.0770    0.0269   -0.0792 C   0  0  0  0  0  0  0  0  0  0  0  0
    2.2419    0.9833   -0.8098 O   0  0  0  0  0  0  0  0  0  0  0  0
    3.1512   -0.9349    0.3302 C   0  0  0  0  0  0  0  0  0  0  0  0
   -3.9257   -1.1786   -0.8547 H   0  0  0  0  0  0  0  0  0  0  0  0
   -4.1108   -0.8878    0.8749 H   0  0  0  0  0  0  0  0  0  0  0  0
   -4.8756    0.1955   -0.2884 H   0  0  0  0  0  0  0  0  0  0  0  0
   -2.6478    0.9552   -1.0763 H   0  0  0  0  0  0  0  0  0  0  0  0
   -2.8348    1.2467    0.6522 H   0  0  0  0  0  0  0  0  0  0  0  0
   -1.5580   -0.8364    1.1457 H   0  0  0  0  0  0  0  0  0  0  0  0
   -1.3798   -1.1378   -0.5841 H   0  0  0  0  0  0  0  0  0  0  0  0
   -0.0871    0.9878   -0.8283 H   0  0  0  0  0  0  0  0  0  0  0  0
   -0.3014    1.3085    0.9069 H   0  0  0  0  0  0  0  0  0  0  0  0
    2.7405   -1.6874    0.9941 H   0  0  0  0  0  0  0  0  0  0  0  0
    3.9494   -0.3852    0.8219 H   0  0  0  0  0  0  0  0  0  0  0  0
    3.5670   -1.3987   -0.5607 H   0  0  0  0  0  0  0  0  0  0  0  0
  1  2  1  0  0  0  0
  2  3  1  0  0  0  0
  3  4  1  0  0  0  0
  4  5  1  0  0  0  0
  5  6  1  0  0  0  0
  6  7  2  0  0  0  0
  6  8  1  0  0  0  0
  1  9  1  0  0  0  0
  1 10  1  0  0  0  0
  1 11  1  0  0  0  0
  2 12  1  0  0  0  0
  2 13  1  0  0  0  0
  3 14  1  0  0  0  0
  3 15  1  0  0  0  0
  4 16  1  0  0  0  0
  4 17  1  0  0  0  0
  8 18  1  0  0  0  0
  8 19  1  0  0  0  0
  8 20  1  0  0  0  0
M  END
