 xtb: 6.7.1 (edcfbbe)
          04112514463D

 23 22  0     0  0            999 V2000
    2.8703   -0.8635    0.3323 C   0  0  0  0  0  0  0  0  0  0  0  0
    2.2380    0.3375   -0.3627 C   0  0  0  0  0  0  0  0  0  0  0  0
    0.7378    0.1710   -0.6147 C   0  0  0  0  0  0  0  0  0  0  0  0
   -0.0823    0.1941    0.6742 C   0  0  0  0  0  0  0  0  0  0  0  0
   -1.6038    0.1056    0.4813 C   0  0  0  0  0  0  0  0  0  0  0  0
   -2.1610    1.2999   -0.2915 C   0  0  0  0  0  0  0  0  0  0  0  0
   -2.0210   -1.2027   -0.1884 C   0  0  0  0  0  0  0  0  0  0  0  0
    2.6800   -1.7727   -0.2340 H   0  0  0  0  0  0  0  0  0  0  0  0
    3.9464   -0.7284    0.4127 H   0  0  0  0  0  0  0  0  0  0  0  0
    2.4703   -0.9915    1.3345 H   0  0  0  0  0  0  0  0  0  0  0  0
    2.7360    0.4870   -1.3238 H   0  0  0  0  0  0  0  0  0  0  0  0
    2.4059    1.2344    0.2382 H   0  0  0  0  0  0  0  0  0  0  0  0
    0.4087    0.9838   -1.2641 H   0  0  0  0  0  0  0  0  0  0  0  0
    0.5731   -0.7700   -1.1418 H   0  0  0  0  0  0  0  0  0  0  0  0
    0.2247   -0.6402    1.3080 H   0  0  0  0  0  0  0  0  0  0  0  0
    0.1434    1.1177    1.2141 H   0  0  0  0  0  0  0  0  0  0  0  0
   -2.0456    0.1233    1.4857 H   0  0  0  0  0  0  0  0  0  0  0  0
   -3.2484    1.2785   -0.2798 H   0  0  0  0  0  0  0  0  0  0  0  0
   -1.8314    2.2344    0.1566 H   0  0  0  0  0  0  0  0  0  0  0  0
   -1.8354    1.2778   -1.3283 H   0  0  0  0  0  0  0  0  0  0  0  0
   -1.6903   -1.2295   -1.2234 H   0  0  0  0  0  0  0  0  0  0  0  0
   -3.1041   -1.3008   -0.1775 H   0  0  0  0  0  0  0  0  0  0  0  0
   -1.5940   -2.0547    0.3355 H   0  0  0  0  0  0  0  0  0  0  0  0
  1  2  1  0  0  0  0
  2  3  1  0  0  0  0
  3  4  1  0  0  0  0
  4  5  1  0  0  0  0
  5  6  1  0  0  0  0
  5  7  1  0  0  0  0
  1  8  1  0  0  0  0
  1  9  1  0  0  0  0
  1 10  1  0  0  0  0
  2 11  1  0  0  0  0
  2 12  1  0  0  0  0
  3 13  1  0  0  0  0
  3 14  1  0  0  0  0
  4 15  1  0  0  0  0
  4 16  1  0  0  0  0
  5 17  1  0  0  0  0
  6 18  1  0  0  0  0
  6 19  1  0  0  0  0
  6 20  1  0  0  0  0
  7 21  1  0  0  0  0
  7 22  1  0  0  0  0
  7 23  1  0  0  0  0
M  END
