 xtb: 6.7.1 (edcfbbe)
          04112514233D

 23 22  0     0  0            999 V2000
    3.0647    1.4655    0.2169 C   0  0  0  0  0  0  0  0  0  0  0  0
    2.0363    0.4254   -0.2241 C   0  0  0  0  0  0  0  0  0  0  0  0
    2.7418   -0.7481   -0.9003 C   0  0  0  0  0  0  0  0  0  0  0  0
    1.2129   -0.0349    0.9863 C   0  0  0  0  0  0  0  0  0  0  0  0
   -0.0557   -0.7842    0.6042 C   0  0  0  0  0  0  0  0  0  0  0  0
   -0.9315    0.1191   -0.0868 O   0  0  0  0  0  0  0  0  0  0  0  0
   -2.2278   -0.1605   -0.1164 C   0  0  0  0  0  0  0  0  0  0  0  0
   -2.7081   -1.1510    0.3973 O   0  0  0  0  0  0  0  0  0  0  0  0
   -3.0035    0.8952   -0.8455 C   0  0  0  0  0  0  0  0  0  0  0  0
    3.7363    1.0404    0.9593 H   0  0  0  0  0  0  0  0  0  0  0  0
    2.5744    2.3328    0.6518 H   0  0  0  0  0  0  0  0  0  0  0  0
    3.6569    1.7969   -0.6321 H   0  0  0  0  0  0  0  0  0  0  0  0
    1.3524    0.8901   -0.9415 H   0  0  0  0  0  0  0  0  0  0  0  0
    3.4225   -1.2315   -0.2029 H   0  0  0  0  0  0  0  0  0  0  0  0
    3.3171   -0.3987   -1.7540 H   0  0  0  0  0  0  0  0  0  0  0  0
    2.0293   -1.4878   -1.2553 H   0  0  0  0  0  0  0  0  0  0  0  0
    0.9234    0.8380    1.5736 H   0  0  0  0  0  0  0  0  0  0  0  0
    1.8170   -0.6875    1.6173 H   0  0  0  0  0  0  0  0  0  0  0  0
    0.1530   -1.6303   -0.0569 H   0  0  0  0  0  0  0  0  0  0  0  0
   -0.5770   -1.1639    1.4893 H   0  0  0  0  0  0  0  0  0  0  0  0
   -2.9190    1.8333   -0.3032 H   0  0  0  0  0  0  0  0  0  0  0  0
   -4.0444    0.5984   -0.9172 H   0  0  0  0  0  0  0  0  0  0  0  0
   -2.5776    1.0372   -1.8345 H   0  0  0  0  0  0  0  0  0  0  0  0
  1  2  1  0  0  0  0
  2  3  1  0  0  0  0
  2  4  1  0  0  0  0
  4  5  1  0  0  0  0
  5  6  1  0  0  0  0
  6  7  1  0  0  0  0
  7  8  2  0  0  0  0
  7  9  1  0  0  0  0
  1 10  1  0  0  0  0
  1 11  1  0  0  0  0
  1 12  1  0  0  0  0
  2 13  1  0  0  0  0
  3 14  1  0  0  0  0
  3 15  1  0  0  0  0
  3 16  1  0  0  0  0
  4 17  1  0  0  0  0
  4 18  1  0  0  0  0
  5 19  1  0  0  0  0
  5 20  1  0  0  0  0
  9 21  1  0  0  0  0
  9 22  1  0  0  0  0
  9 23  1  0  0  0  0
M  END
