 xtb: 6.7.1 (edcfbbe)
          04112514053D

 17 16  0     0  0            999 V2000
    3.5596   -0.3931    0.0321 C   0  0  0  0  0  0  0  0  0  0  0  0
    2.0753   -0.7329    0.0835 C   0  0  0  0  0  0  0  0  0  0  0  0
    1.2123    0.4826   -0.2830 C   0  0  0  0  0  0  0  0  0  0  0  0
   -0.2290    0.1444   -0.2794 C   0  0  0  0  0  0  0  0  0  0  0  0
   -1.1778    0.7916    0.4112 C   0  0  0  0  0  0  0  0  0  0  0  0
   -2.5679    0.3869    0.3580 C   0  0  0  0  0  0  0  0  0  0  0  0
   -3.0158   -0.5414   -0.2913 O   0  0  0  0  0  0  0  0  0  0  0  0
    3.7917    0.4127    0.7242 H   0  0  0  0  0  0  0  0  0  0  0  0
    4.1549   -1.2608    0.3044 H   0  0  0  0  0  0  0  0  0  0  0  0
    3.8463   -0.0800   -0.9689 H   0  0  0  0  0  0  0  0  0  0  0  0
    1.8106   -1.0680    1.0881 H   0  0  0  0  0  0  0  0  0  0  0  0
    1.8619   -1.5498   -0.6080 H   0  0  0  0  0  0  0  0  0  0  0  0
    1.4862    0.8031   -1.2922 H   0  0  0  0  0  0  0  0  0  0  0  0
    1.4131    1.3045    0.4053 H   0  0  0  0  0  0  0  0  0  0  0  0
   -0.5317   -0.7052   -0.8803 H   0  0  0  0  0  0  0  0  0  0  0  0
   -0.9419    1.6420    1.0327 H   0  0  0  0  0  0  0  0  0  0  0  0
   -3.2513    0.9977    0.9758 H   0  0  0  0  0  0  0  0  0  0  0  0
  1  2  1  0  0  0  0
  2  3  1  0  0  0  0
  3  4  1  0  0  0  0
  4  5  2  0  0  0  0
  5  6  1  0  0  0  0
  6  7  2  0  0  0  0
  1  8  1  0  0  0  0
  1  9  1  0  0  0  0
  1 10  1  0  0  0  0
  2 11  1  0  0  0  0
  2 12  1  0  0  0  0
  3 13  1  0  0  0  0
  3 14  1  0  0  0  0
  4 15  1  0  0  0  0
  5 16  1  0  0  0  0
  6 17  1  0  0  0  0
M  END
