 xtb: 6.7.1 (edcfbbe)
          04112516113D

 20 19  0     0  0            999 V2000
    3.9932   -0.1050    0.2612 C   0  0  0  0  0  0  0  0  0  0  0  0
    2.6104   -0.1747   -0.3036 C   0  0  0  0  0  0  0  0  0  0  0  0
    2.1527   -1.1022   -0.9357 O   0  0  0  0  0  0  0  0  0  0  0  0
    1.9166    0.9368   -0.0389 O   0  0  0  0  0  0  0  0  0  0  0  0
    0.5808    1.0275   -0.5255 C   0  0  0  0  0  0  0  0  0  0  0  0
   -0.3813    0.2838    0.3998 C   0  0  0  0  0  0  0  0  0  0  0  0
   -1.7080    0.5510   -0.0481 O   0  0  0  0  0  0  0  0  0  0  0  0
   -2.6774   -0.2821    0.3376 C   0  0  0  0  0  0  0  0  0  0  0  0
   -2.4751   -1.2457    1.0447 O   0  0  0  0  0  0  0  0  0  0  0  0
   -4.0078    0.1445   -0.1963 C   0  0  0  0  0  0  0  0  0  0  0  0
    4.1623   -0.9705    0.8963 H   0  0  0  0  0  0  0  0  0  0  0  0
    4.1172    0.8141    0.8227 H   0  0  0  0  0  0  0  0  0  0  0  0
    4.7095   -0.1491   -0.5556 H   0  0  0  0  0  0  0  0  0  0  0  0
    0.3414    2.0907   -0.5416 H   0  0  0  0  0  0  0  0  0  0  0  0
    0.5249    0.6047   -1.5332 H   0  0  0  0  0  0  0  0  0  0  0  0
   -0.2686    0.6362    1.4307 H   0  0  0  0  0  0  0  0  0  0  0  0
   -0.1960   -0.7961    0.3744 H   0  0  0  0  0  0  0  0  0  0  0  0
   -4.6494   -0.7229   -0.3126 H   0  0  0  0  0  0  0  0  0  0  0  0
   -3.8772    0.6709   -1.1356 H   0  0  0  0  0  0  0  0  0  0  0  0
   -4.4645    0.8200    0.5243 H   0  0  0  0  0  0  0  0  0  0  0  0
  1  2  1  0  0  0  0
  2  3  2  0  0  0  0
  2  4  1  0  0  0  0
  4  5  1  0  0  0  0
  5  6  1  0  0  0  0
  6  7  1  0  0  0  0
  7  8  1  0  0  0  0
  8  9  2  0  0  0  0
  8 10  1  0  0  0  0
  1 11  1  0  0  0  0
  1 12  1  0  0  0  0
  1 13  1  0  0  0  0
  5 14  1  0  0  0  0
  5 15  1  0  0  0  0
  6 16  1  0  0  0  0
  6 17  1  0  0  0  0
 10 18  1  0  0  0  0
 10 19  1  0  0  0  0
 10 20  1  0  0  0  0
M  END
