 xtb: 6.7.1 (edcfbbe)
          04112514483D

 18 17  0     0  0            999 V2000
    2.5563    0.7277    0.2084 C   0  0  0  0  0  0  0  0  0  0  0  0
    1.2816    0.2259   -0.4596 C   0  0  0  0  0  0  0  0  0  0  0  0
    0.4944   -0.7118    0.4541 C   0  0  0  0  0  0  0  0  0  0  0  0
   -0.8134   -1.1826   -0.1799 C   0  0  0  0  0  0  0  0  0  0  0  0
   -1.8892   -0.1472   -0.3178 C   0  0  0  0  0  0  0  0  0  0  0  0
   -1.9419    1.0381    0.2608 C   0  0  0  0  0  0  0  0  0  0  0  0
    3.1982   -0.1074    0.4809 H   0  0  0  0  0  0  0  0  0  0  0  0
    2.3195    1.2848    1.1123 H   0  0  0  0  0  0  0  0  0  0  0  0
    3.1084    1.3813   -0.4625 H   0  0  0  0  0  0  0  0  0  0  0  0
    0.6553    1.0757   -0.7364 H   0  0  0  0  0  0  0  0  0  0  0  0
    1.5398   -0.3053   -1.3788 H   0  0  0  0  0  0  0  0  0  0  0  0
    1.1103   -1.5873    0.6734 H   0  0  0  0  0  0  0  0  0  0  0  0
    0.2863   -0.2153    1.4033 H   0  0  0  0  0  0  0  0  0  0  0  0
   -0.6018   -1.5909   -1.1725 H   0  0  0  0  0  0  0  0  0  0  0  0
   -1.2255   -2.0036    0.4163 H   0  0  0  0  0  0  0  0  0  0  0  0
   -2.7097   -0.4575   -0.9543 H   0  0  0  0  0  0  0  0  0  0  0  0
   -2.7768    1.7005    0.1056 H   0  0  0  0  0  0  0  0  0  0  0  0
   -1.1672    1.4066    0.9106 H   0  0  0  0  0  0  0  0  0  0  0  0
  1  2  1  0  0  0  0
  2  3  1  0  0  0  0
  3  4  1  0  0  0  0
  4  5  1  0  0  0  0
  5  6  2  0  0  0  0
  1  7  1  0  0  0  0
  1  8  1  0  0  0  0
  1  9  1  0  0  0  0
  2 10  1  0  0  0  0
  2 11  1  0  0  0  0
  3 12  1  0  0  0  0
  3 13  1  0  0  0  0
  4 14  1  0  0  0  0
  4 15  1  0  0  0  0
  5 16  1  0  0  0  0
  6 17  1  0  0  0  0
  6 18  1  0  0  0  0
M  END
