 xtb: 6.7.1 (edcfbbe)
          04112516483D

 20 19  0     0  0            999 V2000
    3.1075   -1.4488   -0.3676 C   0  0  0  0  0  0  0  0  0  0  0  0
    2.3776   -0.1632   -0.1412 C   0  0  0  0  0  0  0  0  0  0  0  0
    2.7637    0.7531    0.5524 O   0  0  0  0  0  0  0  0  0  0  0  0
    1.2169   -0.1366   -0.8016 O   0  0  0  0  0  0  0  0  0  0  0  0
    0.3902    1.0174   -0.6552 C   0  0  0  0  0  0  0  0  0  0  0  0
   -0.3848    0.9952    0.6616 C   0  0  0  0  0  0  0  0  0  0  0  0
   -1.2043   -0.1679    0.7710 O   0  0  0  0  0  0  0  0  0  0  0  0
   -2.3757   -0.1710    0.1286 C   0  0  0  0  0  0  0  0  0  0  0  0
   -2.7661    0.7641   -0.5366 O   0  0  0  0  0  0  0  0  0  0  0  0
   -3.1248   -1.4441    0.3635 C   0  0  0  0  0  0  0  0  0  0  0  0
    2.8358   -2.1400    0.4279 H   0  0  0  0  0  0  0  0  0  0  0  0
    4.1777   -1.2741   -0.3212 H   0  0  0  0  0  0  0  0  0  0  0  0
    2.8162   -1.8774   -1.3205 H   0  0  0  0  0  0  0  0  0  0  0  0
    1.0095    1.9184   -0.6826 H   0  0  0  0  0  0  0  0  0  0  0  0
   -0.2949    0.9918   -1.5034 H   0  0  0  0  0  0  0  0  0  0  0  0
   -1.0090    1.8916    0.7156 H   0  0  0  0  0  0  0  0  0  0  0  0
    0.3003    0.9484    1.5089 H   0  0  0  0  0  0  0  0  0  0  0  0
   -3.7133   -1.3319    1.2720 H   0  0  0  0  0  0  0  0  0  0  0  0
   -2.4270   -2.2633    0.5003 H   0  0  0  0  0  0  0  0  0  0  0  0
   -3.7983   -1.6309   -0.4667 H   0  0  0  0  0  0  0  0  0  0  0  0
  1  2  1  0  0  0  0
  2  3  2  0  0  0  0
  2  4  1  0  0  0  0
  4  5  1  0  0  0  0
  5  6  1  0  0  0  0
  6  7  1  0  0  0  0
  7  8  1  0  0  0  0
  8  9  2  0  0  0  0
  8 10  1  0  0  0  0
  1 11  1  0  0  0  0
  1 12  1  0  0  0  0
  1 13  1  0  0  0  0
  5 14  1  0  0  0  0
  5 15  1  0  0  0  0
  6 16  1  0  0  0  0
  6 17  1  0  0  0  0
 10 18  1  0  0  0  0
 10 19  1  0  0  0  0
 10 20  1  0  0  0  0
M  END
