 xtb: 6.7.1 (edcfbbe)
          04112518233D

 26 25  0     0  0            999 V2000
    3.0034   -1.3199   -1.0772 C   0  0  0  0  0  0  0  0  0  0  0  0
    1.8140   -0.6408   -0.4023 C   0  0  0  0  0  0  0  0  0  0  0  0
    1.2622   -1.5012    0.7193 C   0  0  0  0  0  0  0  0  0  0  0  0
    0.8598   -0.1400   -1.4304 C   0  0  0  0  0  0  0  0  0  0  0  0
   -0.3991   -0.0835   -1.5163 N   0  0  0  0  0  0  0  0  0  0  0  0
   -1.1767   -0.7468   -0.5231 O   0  0  0  0  0  0  0  0  0  0  0  0
   -2.1280    0.0352    0.0675 C   0  0  0  0  0  0  0  0  0  0  0  0
   -2.0895    1.2516    0.0637 O   0  0  0  0  0  0  0  0  0  0  0  0
   -3.0274   -0.7313    0.6828 N   0  0  0  0  0  0  0  0  0  0  0  0
   -4.1138   -0.1912    1.4698 C   0  0  0  0  0  0  0  0  0  0  0  0
    2.4822    0.9802    0.2632 S   0  0  0  0  0  0  0  0  0  0  0  0
    1.0825    1.7095    1.1527 C   0  0  0  0  0  0  0  0  0  0  0  0
    3.4414   -0.6692   -1.8294 H   0  0  0  0  0  0  0  0  0  0  0  0
    3.7636   -1.5472   -0.3350 H   0  0  0  0  0  0  0  0  0  0  0  0
    2.6781   -2.2435   -1.5498 H   0  0  0  0  0  0  0  0  0  0  0  0
    0.4817   -0.9905    1.2768 H   0  0  0  0  0  0  0  0  0  0  0  0
    2.0678   -1.7577    1.4034 H   0  0  0  0  0  0  0  0  0  0  0  0
    0.8433   -2.4153    0.3037 H   0  0  0  0  0  0  0  0  0  0  0  0
    1.3306    0.3516   -2.2742 H   0  0  0  0  0  0  0  0  0  0  0  0
   -2.9464   -1.7324    0.5882 H   0  0  0  0  0  0  0  0  0  0  0  0
   -4.0366    0.8938    1.4464 H   0  0  0  0  0  0  0  0  0  0  0  0
   -4.0415   -0.5401    2.4990 H   0  0  0  0  0  0  0  0  0  0  0  0
   -5.0698   -0.4956    1.0464 H   0  0  0  0  0  0  0  0  0  0  0  0
    1.3704    2.7361    1.3540 H   0  0  0  0  0  0  0  0  0  0  0  0
    0.9200    1.1816    2.0877 H   0  0  0  0  0  0  0  0  0  0  0  0
    0.1872    1.7013    0.5354 H   0  0  0  0  0  0  0  0  0  0  0  0
  1  2  1  0  0  0  0
  2  3  1  0  0  0  0
  2  4  1  0  0  0  0
  4  5  2  0  0  0  0
  5  6  1  0  0  0  0
  6  7  1  0  0  0  0
  7  8  2  0  0  0  0
  7  9  4  0  0  0  0
  9 10  1  0  0  0  0
  2 11  1  0  0  0  0
 11 12  1  0  0  0  0
  1 13  1  0  0  0  0
  1 14  1  0  0  0  0
  1 15  1  0  0  0  0
  3 16  1  0  0  0  0
  3 17  1  0  0  0  0
  3 18  1  0  0  0  0
  4 19  1  0  0  0  0
  9 20  1  0  0  0  0
 10 21  1  0  0  0  0
 10 22  1  0  0  0  0
 10 23  1  0  0  0  0
 12 24  1  0  0  0  0
 12 25  1  0  0  0  0
 12 26  1  0  0  0  0
M  END
