 xtb: 6.7.1 (edcfbbe)
          04112514133D

 23 22  0     0  0            999 V2000
    2.4382    0.8053   -0.1356 C   0  0  0  0  0  0  0  0  0  0  0  0
    1.6397   -0.3708   -0.6851 C   0  0  0  0  0  0  0  0  0  0  0  0
    0.8250   -1.1037    0.3819 C   0  0  0  0  0  0  0  0  0  0  0  0
   -0.2305   -0.2893    1.1380 C   0  0  0  0  0  0  0  0  0  0  0  0
   -1.4644    0.2079    0.3609 C   0  0  0  0  0  0  0  0  0  0  0  0
   -1.2219    1.5188   -0.3867 C   0  0  0  0  0  0  0  0  0  0  0  0
   -2.0286   -0.8511   -0.5838 C   0  0  0  0  0  0  0  0  0  0  0  0
    1.7796    1.5934    0.2182 H   0  0  0  0  0  0  0  0  0  0  0  0
    3.0669    0.4825    0.6916 H   0  0  0  0  0  0  0  0  0  0  0  0
    3.0778    1.2213   -0.9108 H   0  0  0  0  0  0  0  0  0  0  0  0
    2.3352   -1.0921   -1.1232 H   0  0  0  0  0  0  0  0  0  0  0  0
    0.9878   -0.0276   -1.4888 H   0  0  0  0  0  0  0  0  0  0  0  0
    0.3458   -1.9687   -0.0796 H   0  0  0  0  0  0  0  0  0  0  0  0
    1.5254   -1.4876    1.1295 H   0  0  0  0  0  0  0  0  0  0  0  0
   -0.5940   -0.9353    1.9425 H   0  0  0  0  0  0  0  0  0  0  0  0
    0.2478    0.5686    1.6134 H   0  0  0  0  0  0  0  0  0  0  0  0
   -2.2314    0.4165    1.1184 H   0  0  0  0  0  0  0  0  0  0  0  0
   -0.8340    2.2780    0.2890 H   0  0  0  0  0  0  0  0  0  0  0  0
   -0.5179    1.3906   -1.2027 H   0  0  0  0  0  0  0  0  0  0  0  0
   -2.1582    1.8843   -0.8042 H   0  0  0  0  0  0  0  0  0  0  0  0
   -2.9831   -0.5197   -0.9868 H   0  0  0  0  0  0  0  0  0  0  0  0
   -2.1876   -1.7890   -0.0566 H   0  0  0  0  0  0  0  0  0  0  0  0
   -1.3535   -1.0284   -1.4170 H   0  0  0  0  0  0  0  0  0  0  0  0
  1  2  1  0  0  0  0
  2  3  1  0  0  0  0
  3  4  1  0  0  0  0
  4  5  1  0  0  0  0
  5  6  1  0  0  0  0
  5  7  1  0  0  0  0
  1  8  1  0  0  0  0
  1  9  1  0  0  0  0
  1 10  1  0  0  0  0
  2 11  1  0  0  0  0
  2 12  1  0  0  0  0
  3 13  1  0  0  0  0
  3 14  1  0  0  0  0
  4 15  1  0  0  0  0
  4 16  1  0  0  0  0
  5 17  1  0  0  0  0
  6 18  1  0  0  0  0
  6 19  1  0  0  0  0
  6 20  1  0  0  0  0
  7 21  1  0  0  0  0
  7 22  1  0  0  0  0
  7 23  1  0  0  0  0
M  END
