 xtb: 6.7.1 (edcfbbe)
          04112514233D

 23 22  0     0  0            999 V2000
    3.0679    0.8821    0.5983 C   0  0  0  0  0  0  0  0  0  0  0  0
    1.6672    0.4587    0.1587 C   0  0  0  0  0  0  0  0  0  0  0  0
    1.5966    0.4145   -1.3675 C   0  0  0  0  0  0  0  0  0  0  0  0
    1.3012   -0.9055    0.7679 C   0  0  0  0  0  0  0  0  0  0  0  0
   -0.1832   -1.0473    1.0944 C   0  0  0  0  0  0  0  0  0  0  0  0
   -0.9956   -0.9407   -0.0831 O   0  0  0  0  0  0  0  0  0  0  0  0
   -1.8229    0.0892   -0.2100 C   0  0  0  0  0  0  0  0  0  0  0  0
   -1.9665    0.9507    0.6339 O   0  0  0  0  0  0  0  0  0  0  0  0
   -2.5483    0.0525   -1.5222 C   0  0  0  0  0  0  0  0  0  0  0  0
    3.3344    1.8336    0.1446 H   0  0  0  0  0  0  0  0  0  0  0  0
    3.7991    0.1378    0.2918 H   0  0  0  0  0  0  0  0  0  0  0  0
    3.1161    0.9931    1.6787 H   0  0  0  0  0  0  0  0  0  0  0  0
    0.9509    1.2058    0.5218 H   0  0  0  0  0  0  0  0  0  0  0  0
    2.3699   -0.2440   -1.7575 H   0  0  0  0  0  0  0  0  0  0  0  0
    1.7493    1.4077   -1.7838 H   0  0  0  0  0  0  0  0  0  0  0  0
    0.6313    0.0453   -1.7025 H   0  0  0  0  0  0  0  0  0  0  0  0
    1.8387   -1.0461    1.7062 H   0  0  0  0  0  0  0  0  0  0  0  0
    1.5954   -1.7018    0.0834 H   0  0  0  0  0  0  0  0  0  0  0  0
   -0.3886   -2.0358    1.5122 H   0  0  0  0  0  0  0  0  0  0  0  0
   -0.5003   -0.2743    1.8018 H   0  0  0  0  0  0  0  0  0  0  0  0
   -3.6024    0.2553   -1.3569 H   0  0  0  0  0  0  0  0  0  0  0  0
   -2.4068   -0.9113   -1.9991 H   0  0  0  0  0  0  0  0  0  0  0  0
   -2.1513    0.8413   -2.1579 H   0  0  0  0  0  0  0  0  0  0  0  0
  1  2  1  0  0  0  0
  2  3  1  0  0  0  0
  2  4  1  0  0  0  0
  4  5  1  0  0  0  0
  5  6  1  0  0  0  0
  6  7  1  0  0  0  0
  7  8  2  0  0  0  0
  7  9  1  0  0  0  0
  1 10  1  0  0  0  0
  1 11  1  0  0  0  0
  1 12  1  0  0  0  0
  2 13  1  0  0  0  0
  3 14  1  0  0  0  0
  3 15  1  0  0  0  0
  3 16  1  0  0  0  0
  4 17  1  0  0  0  0
  4 18  1  0  0  0  0
  5 19  1  0  0  0  0
  5 20  1  0  0  0  0
  9 21  1  0  0  0  0
  9 22  1  0  0  0  0
  9 23  1  0  0  0  0
M  END
