 xtb: 6.7.1 (edcfbbe)
          04112516253D

 17 16  0     0  0            999 V2000
   -3.3574    0.4200   -0.2222 C   0  0  0  0  0  0  0  0  0  0  0  0
   -2.1646    0.0616    0.6561 C   0  0  0  0  0  0  0  0  0  0  0  0
   -0.8590    0.0984   -0.1344 C   0  0  0  0  0  0  0  0  0  0  0  0
    0.3440   -0.2619    0.7504 C   0  0  0  0  0  0  0  0  0  0  0  0
    1.5942   -0.2283   -0.0824 C   0  0  0  0  0  0  0  0  0  0  0  0
    2.1069   -1.1963   -0.6045 O   0  0  0  0  0  0  0  0  0  0  0  0
    2.0759    0.9956   -0.2265 O   0  0  0  0  0  0  0  0  0  0  0  0
   -3.2426    1.4209   -0.6315 H   0  0  0  0  0  0  0  0  0  0  0  0
   -3.4454   -0.2801   -1.0497 H   0  0  0  0  0  0  0  0  0  0  0  0
   -4.2777    0.3875    0.3550 H   0  0  0  0  0  0  0  0  0  0  0  0
   -2.3065   -0.9376    1.0721 H   0  0  0  0  0  0  0  0  0  0  0  0
   -2.1016    0.7646    1.4887 H   0  0  0  0  0  0  0  0  0  0  0  0
   -0.9145   -0.6080   -0.9659 H   0  0  0  0  0  0  0  0  0  0  0  0
   -0.7104    1.0976   -0.5485 H   0  0  0  0  0  0  0  0  0  0  0  0
    0.2180   -1.2640    1.1588 H   0  0  0  0  0  0  0  0  0  0  0  0
    0.4346    0.4655    1.5564 H   0  0  0  0  0  0  0  0  0  0  0  0
    2.8671    1.0283   -0.7984 H   0  0  0  0  0  0  0  0  0  0  0  0
  1  2  1  0  0  0  0
  2  3  1  0  0  0  0
  3  4  1  0  0  0  0
  4  5  1  0  0  0  0
  5  6  2  0  0  0  0
  5  7  1  0  0  0  0
  1  8  1  0  0  0  0
  1  9  1  0  0  0  0
  1 10  1  0  0  0  0
  2 11  1  0  0  0  0
  2 12  1  0  0  0  0
  3 13  1  0  0  0  0
  3 14  1  0  0  0  0
  4 15  1  0  0  0  0
  4 16  1  0  0  0  0
  7 17  1  0  0  0  0
M  END
