 xtb: 6.7.1 (edcfbbe)
          04112516013D

 20 19  0     0  0            999 V2000
   -3.2308    0.4487   -0.6804 C   0  0  0  0  0  0  0  0  0  0  0  0
   -2.2129   -0.6426   -0.3696 C   0  0  0  0  0  0  0  0  0  0  0  0
   -1.3459   -0.2996    0.8423 C   0  0  0  0  0  0  0  0  0  0  0  0
   -0.3551    0.8405    0.5641 C   0  0  0  0  0  0  0  0  0  0  0  0
    0.9965    0.4380    0.8326 O   0  0  0  0  0  0  0  0  0  0  0  0
    1.7098   -0.0943   -0.1549 C   0  0  0  0  0  0  0  0  0  0  0  0
    1.2898   -0.2385   -1.2845 O   0  0  0  0  0  0  0  0  0  0  0  0
    3.0810   -0.4863    0.3073 C   0  0  0  0  0  0  0  0  0  0  0  0
   -3.8337    0.1673   -1.5399 H   0  0  0  0  0  0  0  0  0  0  0  0
   -3.8920    0.6013    0.1693 H   0  0  0  0  0  0  0  0  0  0  0  0
   -2.7362    1.3903   -0.9039 H   0  0  0  0  0  0  0  0  0  0  0  0
   -2.7422   -1.5757   -0.1674 H   0  0  0  0  0  0  0  0  0  0  0  0
   -1.5672   -0.8071   -1.2354 H   0  0  0  0  0  0  0  0  0  0  0  0
   -1.9870   -0.0355    1.6832 H   0  0  0  0  0  0  0  0  0  0  0  0
   -0.7694   -1.1811    1.1305 H   0  0  0  0  0  0  0  0  0  0  0  0
   -0.4123    1.1548   -0.4822 H   0  0  0  0  0  0  0  0  0  0  0  0
   -0.5207    1.6957    1.2186 H   0  0  0  0  0  0  0  0  0  0  0  0
    3.3146    0.0146    1.2404 H   0  0  0  0  0  0  0  0  0  0  0  0
    3.8063   -0.2428   -0.4631 H   0  0  0  0  0  0  0  0  0  0  0  0
    3.0978   -1.5634    0.4600 H   0  0  0  0  0  0  0  0  0  0  0  0
  1  2  1  0  0  0  0
  2  3  1  0  0  0  0
  3  4  1  0  0  0  0
  4  5  1  0  0  0  0
  5  6  1  0  0  0  0
  6  7  2  0  0  0  0
  6  8  1  0  0  0  0
  1  9  1  0  0  0  0
  1 10  1  0  0  0  0
  1 11  1  0  0  0  0
  2 12  1  0  0  0  0
  2 13  1  0  0  0  0
  3 14  1  0  0  0  0
  3 15  1  0  0  0  0
  4 16  1  0  0  0  0
  4 17  1  0  0  0  0
  8 18  1  0  0  0  0
  8 19  1  0  0  0  0
  8 20  1  0  0  0  0
M  END
