 xtb: 6.7.1 (edcfbbe)
          04112516113D

 17 16  0     0  0            999 V2000
   -3.1150   -0.4714    0.1477 C   0  0  0  0  0  0  0  0  0  0  0  0
   -1.7109   -0.0316    0.5437 C   0  0  0  0  0  0  0  0  0  0  0  0
   -0.9682    0.6008   -0.6322 C   0  0  0  0  0  0  0  0  0  0  0  0
    0.4385    1.0567   -0.2464 C   0  0  0  0  0  0  0  0  0  0  0  0
    1.3884   -0.0988   -0.0416 C   0  0  0  0  0  0  0  0  0  0  0  0
    1.1592   -1.2416   -0.3618 O   0  0  0  0  0  0  0  0  0  0  0  0
    2.5639    0.2062    0.5133 O   0  0  0  0  0  0  0  0  0  0  0  0
   -3.0694   -1.2080   -0.6510 H   0  0  0  0  0  0  0  0  0  0  0  0
   -3.6287   -0.9167    0.9958 H   0  0  0  0  0  0  0  0  0  0  0  0
   -3.6967    0.3789   -0.2011 H   0  0  0  0  0  0  0  0  0  0  0  0
   -1.1454   -0.8966    0.8970 H   0  0  0  0  0  0  0  0  0  0  0  0
   -1.7760    0.6878    1.3634 H   0  0  0  0  0  0  0  0  0  0  0  0
   -0.8934   -0.1297   -1.4400 H   0  0  0  0  0  0  0  0  0  0  0  0
   -1.5350    1.4587   -0.9968 H   0  0  0  0  0  0  0  0  0  0  0  0
    0.3992    1.6565    0.6650 H   0  0  0  0  0  0  0  0  0  0  0  0
    0.8568    1.6737   -1.0460 H   0  0  0  0  0  0  0  0  0  0  0  0
    2.6650    1.1500    0.7343 H   0  0  0  0  0  0  0  0  0  0  0  0
  1  2  1  0  0  0  0
  2  3  1  0  0  0  0
  3  4  1  0  0  0  0
  4  5  1  0  0  0  0
  5  6  2  0  0  0  0
  5  7  1  0  0  0  0
  1  8  1  0  0  0  0
  1  9  1  0  0  0  0
  1 10  1  0  0  0  0
  2 11  1  0  0  0  0
  2 12  1  0  0  0  0
  3 13  1  0  0  0  0
  3 14  1  0  0  0  0
  4 15  1  0  0  0  0
  4 16  1  0  0  0  0
  7 17  1  0  0  0  0
M  END
