 xtb: 6.7.1 (edcfbbe)
          04112516153D

 26 25  0     0  0            999 V2000
    3.3907   -0.4546   -0.8373 C   0  0  0  0  0  0  0  0  0  0  0  0
    1.9552   -0.5666   -0.3411 C   0  0  0  0  0  0  0  0  0  0  0  0
    1.6963   -1.9503    0.2584 C   0  0  0  0  0  0  0  0  0  0  0  0
    0.9822   -0.2765   -1.4398 C   0  0  0  0  0  0  0  0  0  0  0  0
   -0.2745   -0.1600   -1.4157 N   0  0  0  0  0  0  0  0  0  0  0  0
   -0.8886   -0.3160   -0.1601 O   0  0  0  0  0  0  0  0  0  0  0  0
   -2.2420   -0.0653   -0.1557 C   0  0  0  0  0  0  0  0  0  0  0  0
   -2.8801    0.2471   -1.1369 O   0  0  0  0  0  0  0  0  0  0  0  0
   -2.7028   -0.2245    1.0848 N   0  0  0  0  0  0  0  0  0  0  0  0
   -4.0923   -0.0335    1.4361 C   0  0  0  0  0  0  0  0  0  0  0  0
    1.6844    0.6474    1.0504 S   0  0  0  0  0  0  0  0  0  0  0  0
    1.6976    2.2444    0.1883 C   0  0  0  0  0  0  0  0  0  0  0  0
    3.5831   -1.2215   -1.5844 H   0  0  0  0  0  0  0  0  0  0  0  0
    3.5778    0.5181   -1.2859 H   0  0  0  0  0  0  0  0  0  0  0  0
    4.0777   -0.5934   -0.0065 H   0  0  0  0  0  0  0  0  0  0  0  0
    0.6691   -2.0305    0.6035 H   0  0  0  0  0  0  0  0  0  0  0  0
    2.3615   -2.1100    1.1029 H   0  0  0  0  0  0  0  0  0  0  0  0
    1.8785   -2.7155   -0.4925 H   0  0  0  0  0  0  0  0  0  0  0  0
    1.3847   -0.1279   -2.4335 H   0  0  0  0  0  0  0  0  0  0  0  0
   -2.0464   -0.4603    1.8140 H   0  0  0  0  0  0  0  0  0  0  0  0
   -4.5022   -0.9530    1.8515 H   0  0  0  0  0  0  0  0  0  0  0  0
   -4.6329    0.2287    0.5291 H   0  0  0  0  0  0  0  0  0  0  0  0
   -4.1892    0.7713    2.1634 H   0  0  0  0  0  0  0  0  0  0  0  0
    0.8804    2.2852   -0.5266 H   0  0  0  0  0  0  0  0  0  0  0  0
    2.6540    2.3959   -0.3014 H   0  0  0  0  0  0  0  0  0  0  0  0
    1.5541    2.9933    0.9600 H   0  0  0  0  0  0  0  0  0  0  0  0
  1  2  1  0  0  0  0
  2  3  1  0  0  0  0
  2  4  1  0  0  0  0
  4  5  2  0  0  0  0
  5  6  1  0  0  0  0
  6  7  1  0  0  0  0
  7  8  2  0  0  0  0
  7  9  4  0  0  0  0
  9 10  1  0  0  0  0
  2 11  1  0  0  0  0
 11 12  1  0  0  0  0
  1 13  1  0  0  0  0
  1 14  1  0  0  0  0
  1 15  1  0  0  0  0
  3 16  1  0  0  0  0
  3 17  1  0  0  0  0
  3 18  1  0  0  0  0
  4 19  1  0  0  0  0
  9 20  1  0  0  0  0
 10 21  1  0  0  0  0
 10 22  1  0  0  0  0
 10 23  1  0  0  0  0
 12 24  1  0  0  0  0
 12 25  1  0  0  0  0
 12 26  1  0  0  0  0
M  END
