 xtb: 6.7.1 (edcfbbe)
          04112516013D

 20 19  0     0  0            999 V2000
   -3.1584   -0.4317   -0.7966 C   0  0  0  0  0  0  0  0  0  0  0  0
   -2.7110    0.5569    0.2744 C   0  0  0  0  0  0  0  0  0  0  0  0
   -1.2019    0.7982    0.2759 C   0  0  0  0  0  0  0  0  0  0  0  0
   -0.4095   -0.4492    0.6601 C   0  0  0  0  0  0  0  0  0  0  0  0
    0.9724   -0.1322    0.8775 O   0  0  0  0  0  0  0  0  0  0  0  0
    1.7925   -0.1210   -0.1691 C   0  0  0  0  0  0  0  0  0  0  0  0
    1.4373   -0.3751   -1.3013 O   0  0  0  0  0  0  0  0  0  0  0  0
    3.1940    0.2210    0.2385 C   0  0  0  0  0  0  0  0  0  0  0  0
   -2.7817   -1.4298   -0.5904 H   0  0  0  0  0  0  0  0  0  0  0  0
   -4.2437   -0.4792   -0.8327 H   0  0  0  0  0  0  0  0  0  0  0  0
   -2.7950   -0.1229   -1.7741 H   0  0  0  0  0  0  0  0  0  0  0  0
   -3.2058    1.5141    0.1017 H   0  0  0  0  0  0  0  0  0  0  0  0
   -3.0186    0.1947    1.2570 H   0  0  0  0  0  0  0  0  0  0  0  0
   -0.8779    1.1291   -0.7137 H   0  0  0  0  0  0  0  0  0  0  0  0
   -0.9615    1.5858    0.9932 H   0  0  0  0  0  0  0  0  0  0  0  0
   -0.7562   -0.8549    1.6116 H   0  0  0  0  0  0  0  0  0  0  0  0
   -0.4731   -1.2082   -0.1245 H   0  0  0  0  0  0  0  0  0  0  0  0
    3.1835    1.1050    0.8687 H   0  0  0  0  0  0  0  0  0  0  0  0
    3.8025    0.3823   -0.6450 H   0  0  0  0  0  0  0  0  0  0  0  0
    3.5998   -0.6040    0.8189 H   0  0  0  0  0  0  0  0  0  0  0  0
  1  2  1  0  0  0  0
  2  3  1  0  0  0  0
  3  4  1  0  0  0  0
  4  5  1  0  0  0  0
  5  6  1  0  0  0  0
  6  7  2  0  0  0  0
  6  8  1  0  0  0  0
  1  9  1  0  0  0  0
  1 10  1  0  0  0  0
  1 11  1  0  0  0  0
  2 12  1  0  0  0  0
  2 13  1  0  0  0  0
  3 14  1  0  0  0  0
  3 15  1  0  0  0  0
  4 16  1  0  0  0  0
  4 17  1  0  0  0  0
  8 18  1  0  0  0  0
  8 19  1  0  0  0  0
  8 20  1  0  0  0  0
M  END
