 xtb: 6.7.1 (edcfbbe)
          04112516353D

 19 18  0     0  0            999 V2000
    3.3203    0.3924    0.5805 C   0  0  0  0  0  0  0  0  0  0  0  0
    2.1991    0.1562   -0.4248 C   0  0  0  0  0  0  0  0  0  0  0  0
    0.8323    0.1205    0.2569 C   0  0  0  0  0  0  0  0  0  0  0  0
   -0.2882   -0.1156   -0.7600 C   0  0  0  0  0  0  0  0  0  0  0  0
   -1.6569   -0.2422   -0.1396 C   0  0  0  0  0  0  0  0  0  0  0  0
   -2.3947   -1.1715   -0.4107 O   0  0  0  0  0  0  0  0  0  0  0  0
   -2.0578    0.8398    0.8181 C   0  0  0  0  0  0  0  0  0  0  0  0
    3.1805    1.3415    1.0927 H   0  0  0  0  0  0  0  0  0  0  0  0
    3.3373   -0.3998    1.3256 H   0  0  0  0  0  0  0  0  0  0  0  0
    4.2842    0.4116    0.0785 H   0  0  0  0  0  0  0  0  0  0  0  0
    2.3707   -0.7891   -0.9438 H   0  0  0  0  0  0  0  0  0  0  0  0
    2.2090    0.9515   -1.1729 H   0  0  0  0  0  0  0  0  0  0  0  0
    0.6721    1.0648    0.7773 H   0  0  0  0  0  0  0  0  0  0  0  0
    0.8216   -0.6825    0.9971 H   0  0  0  0  0  0  0  0  0  0  0  0
   -0.3230    0.7252   -1.4573 H   0  0  0  0  0  0  0  0  0  0  0  0
   -0.0884   -1.0224   -1.3348 H   0  0  0  0  0  0  0  0  0  0  0  0
   -3.1324    0.8145    0.9774 H   0  0  0  0  0  0  0  0  0  0  0  0
   -1.5625    0.6583    1.7700 H   0  0  0  0  0  0  0  0  0  0  0  0
   -1.7493    1.8135    0.4514 H   0  0  0  0  0  0  0  0  0  0  0  0
  1  2  1  0  0  0  0
  2  3  1  0  0  0  0
  3  4  1  0  0  0  0
  4  5  1  0  0  0  0
  5  6  2  0  0  0  0
  5  7  1  0  0  0  0
  1  8  1  0  0  0  0
  1  9  1  0  0  0  0
  1 10  1  0  0  0  0
  2 11  1  0  0  0  0
  2 12  1  0  0  0  0
  3 13  1  0  0  0  0
  3 14  1  0  0  0  0
  4 15  1  0  0  0  0
  4 16  1  0  0  0  0
  7 17  1  0  0  0  0
  7 18  1  0  0  0  0
  7 19  1  0  0  0  0
M  END
