 xtb: 6.7.1 (edcfbbe)
          04112516153D

 26 25  0     0  0            999 V2000
    2.8702   -0.9231   -1.1476 C   0  0  0  0  0  0  0  0  0  0  0  0
    1.7381   -0.2989   -0.3379 C   0  0  0  0  0  0  0  0  0  0  0  0
    1.2736   -1.2253    0.7760 C   0  0  0  0  0  0  0  0  0  0  0  0
    0.6719    0.1555   -1.2894 C   0  0  0  0  0  0  0  0  0  0  0  0
   -0.5850    0.2162   -1.2300 N   0  0  0  0  0  0  0  0  0  0  0  0
   -1.2216   -0.2280   -0.0574 O   0  0  0  0  0  0  0  0  0  0  0  0
   -2.5969   -0.2186   -0.1440 C   0  0  0  0  0  0  0  0  0  0  0  0
   -3.2155    0.0832   -1.1404 O   0  0  0  0  0  0  0  0  0  0  0  0
   -3.1074   -0.6054    1.0258 N   0  0  0  0  0  0  0  0  0  0  0  0
   -4.5301   -0.7156    1.2610 C   0  0  0  0  0  0  0  0  0  0  0  0
    2.2840    1.3396    0.3960 S   0  0  0  0  0  0  0  0  0  0  0  0
    3.9021    0.9260    1.1222 C   0  0  0  0  0  0  0  0  0  0  0  0
    3.2888   -0.2022   -1.8460 H   0  0  0  0  0  0  0  0  0  0  0  0
    3.6581   -1.2845   -0.4929 H   0  0  0  0  0  0  0  0  0  0  0  0
    2.4800   -1.7681   -1.7118 H   0  0  0  0  0  0  0  0  0  0  0  0
    0.7546   -2.0823    0.3512 H   0  0  0  0  0  0  0  0  0  0  0  0
    0.5990   -0.7062    1.4508 H   0  0  0  0  0  0  0  0  0  0  0  0
    2.1293   -1.5850    1.3426 H   0  0  0  0  0  0  0  0  0  0  0  0
    1.0387    0.5518   -2.2285 H   0  0  0  0  0  0  0  0  0  0  0  0
   -2.4753   -0.8215    1.7812 H   0  0  0  0  0  0  0  0  0  0  0  0
   -5.0421   -0.4405    0.3415 H   0  0  0  0  0  0  0  0  0  0  0  0
   -4.8321   -0.0412    2.0610 H   0  0  0  0  0  0  0  0  0  0  0  0
   -4.7871   -1.7396    1.5286 H   0  0  0  0  0  0  0  0  0  0  0  0
    3.8012    0.0767    1.7886 H   0  0  0  0  0  0  0  0  0  0  0  0
    4.1864    1.8075    1.6868 H   0  0  0  0  0  0  0  0  0  0  0  0
    4.6263    0.7383    0.3375 H   0  0  0  0  0  0  0  0  0  0  0  0
  1  2  1  0  0  0  0
  2  3  1  0  0  0  0
  2  4  1  0  0  0  0
  4  5  2  0  0  0  0
  5  6  1  0  0  0  0
  6  7  1  0  0  0  0
  7  8  2  0  0  0  0
  7  9  4  0  0  0  0
  9 10  1  0  0  0  0
  2 11  1  0  0  0  0
 11 12  1  0  0  0  0
  1 13  1  0  0  0  0
  1 14  1  0  0  0  0
  1 15  1  0  0  0  0
  3 16  1  0  0  0  0
  3 17  1  0  0  0  0
  3 18  1  0  0  0  0
  4 19  1  0  0  0  0
  9 20  1  0  0  0  0
 10 21  1  0  0  0  0
 10 22  1  0  0  0  0
 10 23  1  0  0  0  0
 12 24  1  0  0  0  0
 12 25  1  0  0  0  0
 12 26  1  0  0  0  0
M  END
