 xtb: 6.7.1 (edcfbbe)
          04112516013D

 20 19  0     0  0            999 V2000
   -3.2539   -0.6035   -0.1781 C   0  0  0  0  0  0  0  0  0  0  0  0
   -2.1173   -0.2637    0.7795 C   0  0  0  0  0  0  0  0  0  0  0  0
   -1.2729    0.9204    0.3045 C   0  0  0  0  0  0  0  0  0  0  0  0
   -0.3752    0.5774   -0.8818 C   0  0  0  0  0  0  0  0  0  0  0  0
    0.5852   -0.4312   -0.5378 O   0  0  0  0  0  0  0  0  0  0  0  0
    1.7330   -0.0491    0.0116 C   0  0  0  0  0  0  0  0  0  0  0  0
    2.0225    1.1108    0.2223 O   0  0  0  0  0  0  0  0  0  0  0  0
    2.6124   -1.2243    0.3179 C   0  0  0  0  0  0  0  0  0  0  0  0
   -3.8918    0.2635   -0.3327 H   0  0  0  0  0  0  0  0  0  0  0  0
   -2.8711   -0.9276   -1.1418 H   0  0  0  0  0  0  0  0  0  0  0  0
   -3.8599   -1.4072    0.2321 H   0  0  0  0  0  0  0  0  0  0  0  0
   -2.5382   -0.0170    1.7560 H   0  0  0  0  0  0  0  0  0  0  0  0
   -1.4712   -1.1348    0.9049 H   0  0  0  0  0  0  0  0  0  0  0  0
   -1.9221    1.7454    0.0098 H   0  0  0  0  0  0  0  0  0  0  0  0
   -0.6348    1.2682    1.1206 H   0  0  0  0  0  0  0  0  0  0  0  0
   -0.9454    0.1507   -1.7064 H   0  0  0  0  0  0  0  0  0  0  0  0
    0.1611    1.4708   -1.2162 H   0  0  0  0  0  0  0  0  0  0  0  0
    2.7706   -1.7995   -0.5900 H   0  0  0  0  0  0  0  0  0  0  0  0
    2.1134   -1.8644    1.0403 H   0  0  0  0  0  0  0  0  0  0  0  0
    3.5591   -0.8766    0.7173 H   0  0  0  0  0  0  0  0  0  0  0  0
  1  2  1  0  0  0  0
  2  3  1  0  0  0  0
  3  4  1  0  0  0  0
  4  5  1  0  0  0  0
  5  6  1  0  0  0  0
  6  7  2  0  0  0  0
  6  8  1  0  0  0  0
  1  9  1  0  0  0  0
  1 10  1  0  0  0  0
  1 11  1  0  0  0  0
  2 12  1  0  0  0  0
  2 13  1  0  0  0  0
  3 14  1  0  0  0  0
  3 15  1  0  0  0  0
  4 16  1  0  0  0  0
  4 17  1  0  0  0  0
  8 18  1  0  0  0  0
  8 19  1  0  0  0  0
  8 20  1  0  0  0  0
M  END
