 xtb: 6.7.1 (edcfbbe)
          04112514203D

 23 22  0     0  0            999 V2000
    3.1404   -0.8307    0.3247 C   0  0  0  0  0  0  0  0  0  0  0  0
    1.8467   -0.4993   -0.4104 C   0  0  0  0  0  0  0  0  0  0  0  0
    1.0528    0.5913    0.3085 C   0  0  0  0  0  0  0  0  0  0  0  0
   -0.2801    0.9276   -0.3768 C   0  0  0  0  0  0  0  0  0  0  0  0
   -1.5136    0.3089    0.2929 C   0  0  0  0  0  0  0  0  0  0  0  0
   -2.7817    0.8244   -0.3871 C   0  0  0  0  0  0  0  0  0  0  0  0
   -1.4899   -1.2169    0.2553 C   0  0  0  0  0  0  0  0  0  0  0  0
    3.6978   -1.5974   -0.2078 H   0  0  0  0  0  0  0  0  0  0  0  0
    3.7677    0.0540    0.4103 H   0  0  0  0  0  0  0  0  0  0  0  0
    2.9264   -1.1952    1.3272 H   0  0  0  0  0  0  0  0  0  0  0  0
    1.2418   -1.4023   -0.5000 H   0  0  0  0  0  0  0  0  0  0  0  0
    2.0837   -0.1587   -1.4212 H   0  0  0  0  0  0  0  0  0  0  0  0
    0.8663    0.2831    1.3395 H   0  0  0  0  0  0  0  0  0  0  0  0
    1.6748    1.4884    0.3507 H   0  0  0  0  0  0  0  0  0  0  0  0
   -0.4157    2.0114   -0.3794 H   0  0  0  0  0  0  0  0  0  0  0  0
   -0.2434    0.6045   -1.4195 H   0  0  0  0  0  0  0  0  0  0  0  0
   -1.5304    0.6296    1.3413 H   0  0  0  0  0  0  0  0  0  0  0  0
   -2.8300    1.9100   -0.3412 H   0  0  0  0  0  0  0  0  0  0  0  0
   -2.7975    0.5240   -1.4327 H   0  0  0  0  0  0  0  0  0  0  0  0
   -3.6670    0.4211    0.0989 H   0  0  0  0  0  0  0  0  0  0  0  0
   -1.4201   -1.5688   -0.7719 H   0  0  0  0  0  0  0  0  0  0  0  0
   -2.4022   -1.6170    0.6927 H   0  0  0  0  0  0  0  0  0  0  0  0
   -0.6470   -1.6088    0.8173 H   0  0  0  0  0  0  0  0  0  0  0  0
  1  2  1  0  0  0  0
  2  3  1  0  0  0  0
  3  4  1  0  0  0  0
  4  5  1  0  0  0  0
  5  6  1  0  0  0  0
  5  7  1  0  0  0  0
  1  8  1  0  0  0  0
  1  9  1  0  0  0  0
  1 10  1  0  0  0  0
  2 11  1  0  0  0  0
  2 12  1  0  0  0  0
  3 13  1  0  0  0  0
  3 14  1  0  0  0  0
  4 15  1  0  0  0  0
  4 16  1  0  0  0  0
  5 17  1  0  0  0  0
  6 18  1  0  0  0  0
  6 19  1  0  0  0  0
  6 20  1  0  0  0  0
  7 21  1  0  0  0  0
  7 22  1  0  0  0  0
  7 23  1  0  0  0  0
M  END
