 xtb: 6.7.1 (edcfbbe)
          04112514203D

 23 22  0     0  0            999 V2000
    2.4400    0.8029   -0.1356 C   0  0  0  0  0  0  0  0  0  0  0  0
    1.6397   -0.3701   -0.6889 C   0  0  0  0  0  0  0  0  0  0  0  0
    0.8241   -1.1056    0.3757 C   0  0  0  0  0  0  0  0  0  0  0  0
   -0.2283   -0.2917    1.1365 C   0  0  0  0  0  0  0  0  0  0  0  0
   -1.4635    0.2091    0.3640 C   0  0  0  0  0  0  0  0  0  0  0  0
   -1.2205    1.5200   -0.3835 C   0  0  0  0  0  0  0  0  0  0  0  0
   -2.0333   -0.8477   -0.5798 C   0  0  0  0  0  0  0  0  0  0  0  0
    1.7826    1.5913    0.2198 H   0  0  0  0  0  0  0  0  0  0  0  0
    3.0673    0.4767    0.6914 H   0  0  0  0  0  0  0  0  0  0  0  0
    3.0811    1.2198   -0.9091 H   0  0  0  0  0  0  0  0  0  0  0  0
    2.3341   -1.0909   -1.1296 H   0  0  0  0  0  0  0  0  0  0  0  0
    0.9882   -0.0233   -1.4914 H   0  0  0  0  0  0  0  0  0  0  0  0
    0.3422   -1.9672   -0.0891 H   0  0  0  0  0  0  0  0  0  0  0  0
    1.5244   -1.4947    1.1208 H   0  0  0  0  0  0  0  0  0  0  0  0
   -0.5907   -0.9391    1.9404 H   0  0  0  0  0  0  0  0  0  0  0  0
    0.2524    0.5644    1.6129 H   0  0  0  0  0  0  0  0  0  0  0  0
   -2.2275    0.4189    1.1242 H   0  0  0  0  0  0  0  0  0  0  0  0
   -0.8274    2.2775    0.2911 H   0  0  0  0  0  0  0  0  0  0  0  0
   -0.5205    1.3903   -1.2027 H   0  0  0  0  0  0  0  0  0  0  0  0
   -2.1574    1.8885   -0.7967 H   0  0  0  0  0  0  0  0  0  0  0  0
   -2.9885   -0.5138   -0.9793 H   0  0  0  0  0  0  0  0  0  0  0  0
   -2.1926   -1.7857   -0.0530 H   0  0  0  0  0  0  0  0  0  0  0  0
   -1.3616   -1.0257   -1.4155 H   0  0  0  0  0  0  0  0  0  0  0  0
  1  2  1  0  0  0  0
  2  3  1  0  0  0  0
  3  4  1  0  0  0  0
  4  5  1  0  0  0  0
  5  6  1  0  0  0  0
  5  7  1  0  0  0  0
  1  8  1  0  0  0  0
  1  9  1  0  0  0  0
  1 10  1  0  0  0  0
  2 11  1  0  0  0  0
  2 12  1  0  0  0  0
  3 13  1  0  0  0  0
  3 14  1  0  0  0  0
  4 15  1  0  0  0  0
  4 16  1  0  0  0  0
  5 17  1  0  0  0  0
  6 18  1  0  0  0  0
  6 19  1  0  0  0  0
  6 20  1  0  0  0  0
  7 21  1  0  0  0  0
  7 22  1  0  0  0  0
  7 23  1  0  0  0  0
M  END
