 xtb: 6.7.1 (edcfbbe)
          04112514343D

 18 17  0     0  0            999 V2000
    2.8714    0.0878    0.2688 C   0  0  0  0  0  0  0  0  0  0  0  0
    1.4881    0.5470   -0.1805 C   0  0  0  0  0  0  0  0  0  0  0  0
    0.5472   -0.6356   -0.4692 C   0  0  0  0  0  0  0  0  0  0  0  0
   -0.6858   -0.6694    0.4440 C   0  0  0  0  0  0  0  0  0  0  0  0
   -1.6430    0.4369    0.1338 C   0  0  0  0  0  0  0  0  0  0  0  0
   -2.9062    0.2589   -0.2050 C   0  0  0  0  0  0  0  0  0  0  0  0
    3.5091    0.9444    0.4755 H   0  0  0  0  0  0  0  0  0  0  0  0
    3.3452   -0.5128   -0.5046 H   0  0  0  0  0  0  0  0  0  0  0  0
    2.7982   -0.5113    1.1739 H   0  0  0  0  0  0  0  0  0  0  0  0
    1.0609    1.1760    0.6022 H   0  0  0  0  0  0  0  0  0  0  0  0
    1.5932    1.1674   -1.0723 H   0  0  0  0  0  0  0  0  0  0  0  0
    0.2079   -0.6044   -1.5062 H   0  0  0  0  0  0  0  0  0  0  0  0
    1.0959   -1.5696   -0.3357 H   0  0  0  0  0  0  0  0  0  0  0  0
   -1.1947   -1.6285    0.3297 H   0  0  0  0  0  0  0  0  0  0  0  0
   -0.3567   -0.5820    1.4833 H   0  0  0  0  0  0  0  0  0  0  0  0
   -1.2361    1.4380    0.1896 H   0  0  0  0  0  0  0  0  0  0  0  0
   -3.5616    1.0844   -0.4251 H   0  0  0  0  0  0  0  0  0  0  0  0
   -3.3415   -0.7251   -0.2712 H   0  0  0  0  0  0  0  0  0  0  0  0
  1  2  1  0  0  0  0
  2  3  1  0  0  0  0
  3  4  1  0  0  0  0
  4  5  1  0  0  0  0
  5  6  2  0  0  0  0
  1  7  1  0  0  0  0
  1  8  1  0  0  0  0
  1  9  1  0  0  0  0
  2 10  1  0  0  0  0
  2 11  1  0  0  0  0
  3 12  1  0  0  0  0
  3 13  1  0  0  0  0
  4 14  1  0  0  0  0
  4 15  1  0  0  0  0
  5 16  1  0  0  0  0
  6 17  1  0  0  0  0
  6 18  1  0  0  0  0
M  END
