 xtb: 6.7.1 (edcfbbe)
          04112517153D

 20 19  0     0  0            999 V2000
   -3.3463   -0.2725    0.9444 C   0  0  0  0  0  0  0  0  0  0  0  0
   -2.8175   -0.1426   -0.4799 C   0  0  0  0  0  0  0  0  0  0  0  0
   -1.4190    0.4699   -0.5460 C   0  0  0  0  0  0  0  0  0  0  0  0
   -0.3511   -0.4226    0.0811 C   0  0  0  0  0  0  0  0  0  0  0  0
    1.0391    0.0997   -0.1639 C   0  0  0  0  0  0  0  0  0  0  0  0
    1.3327    1.0192   -0.8971 O   0  0  0  0  0  0  0  0  0  0  0  0
    1.9430   -0.5900    0.5301 O   0  0  0  0  0  0  0  0  0  0  0  0
    3.3152   -0.2156    0.3809 C   0  0  0  0  0  0  0  0  0  0  0  0
   -3.3168    0.6905    1.4488 H   0  0  0  0  0  0  0  0  0  0  0  0
   -4.3761   -0.6206    0.9313 H   0  0  0  0  0  0  0  0  0  0  0  0
   -2.7572   -0.9824    1.5182 H   0  0  0  0  0  0  0  0  0  0  0  0
   -2.8044   -1.1254   -0.9549 H   0  0  0  0  0  0  0  0  0  0  0  0
   -3.4960    0.4923   -1.0526 H   0  0  0  0  0  0  0  0  0  0  0  0
   -1.4175    1.4388   -0.0428 H   0  0  0  0  0  0  0  0  0  0  0  0
   -1.1492    0.6484   -1.5890 H   0  0  0  0  0  0  0  0  0  0  0  0
   -0.3988   -1.4279   -0.3443 H   0  0  0  0  0  0  0  0  0  0  0  0
   -0.4857   -0.5168    1.1587 H   0  0  0  0  0  0  0  0  0  0  0  0
    3.4618    0.8077    0.7282 H   0  0  0  0  0  0  0  0  0  0  0  0
    3.6078   -0.2796   -0.6677 H   0  0  0  0  0  0  0  0  0  0  0  0
    3.8773   -0.9182    0.9878 H   0  0  0  0  0  0  0  0  0  0  0  0
  1  2  1  0  0  0  0
  2  3  1  0  0  0  0
  3  4  1  0  0  0  0
  4  5  1  0  0  0  0
  5  6  2  0  0  0  0
  5  7  1  0  0  0  0
  7  8  1  0  0  0  0
  1  9  1  0  0  0  0
  1 10  1  0  0  0  0
  1 11  1  0  0  0  0
  2 12  1  0  0  0  0
  2 13  1  0  0  0  0
  3 14  1  0  0  0  0
  3 15  1  0  0  0  0
  4 16  1  0  0  0  0
  4 17  1  0  0  0  0
  8 18  1  0  0  0  0
  8 19  1  0  0  0  0
  8 20  1  0  0  0  0
M  END
