 xtb: 6.7.1 (edcfbbe)
          04112514053D

 17 16  0     0  0            999 V2000
    2.6564   -1.3033   -0.2020 C   0  0  0  0  0  0  0  0  0  0  0  0
    2.3942    0.0362    0.4776 C   0  0  0  0  0  0  0  0  0  0  0  0
    1.2980    0.8380   -0.2268 C   0  0  0  0  0  0  0  0  0  0  0  0
   -0.0617    0.2793   -0.0272 C   0  0  0  0  0  0  0  0  0  0  0  0
   -1.2066    0.9180   -0.3115 C   0  0  0  0  0  0  0  0  0  0  0  0
   -2.4940    0.2947   -0.0936 C   0  0  0  0  0  0  0  0  0  0  0  0
   -2.6787   -0.8248    0.3520 O   0  0  0  0  0  0  0  0  0  0  0  0
    1.7572   -1.9142   -0.2235 H   0  0  0  0  0  0  0  0  0  0  0  0
    2.9894   -1.1517   -1.2264 H   0  0  0  0  0  0  0  0  0  0  0  0
    3.4278   -1.8539    0.3307 H   0  0  0  0  0  0  0  0  0  0  0  0
    3.3152    0.6214    0.4745 H   0  0  0  0  0  0  0  0  0  0  0  0
    2.1095   -0.1288    1.5184 H   0  0  0  0  0  0  0  0  0  0  0  0
    1.5061    0.8589   -1.3012 H   0  0  0  0  0  0  0  0  0  0  0  0
    1.3100    1.8760    0.1130 H   0  0  0  0  0  0  0  0  0  0  0  0
   -0.1410   -0.7215    0.3790 H   0  0  0  0  0  0  0  0  0  0  0  0
   -1.2113    1.9190   -0.7150 H   0  0  0  0  0  0  0  0  0  0  0  0
   -3.3635    0.9201   -0.3669 H   0  0  0  0  0  0  0  0  0  0  0  0
  1  2  1  0  0  0  0
  2  3  1  0  0  0  0
  3  4  1  0  0  0  0
  4  5  2  0  0  0  0
  5  6  1  0  0  0  0
  6  7  2  0  0  0  0
  1  8  1  0  0  0  0
  1  9  1  0  0  0  0
  1 10  1  0  0  0  0
  2 11  1  0  0  0  0
  2 12  1  0  0  0  0
  3 13  1  0  0  0  0
  3 14  1  0  0  0  0
  4 15  1  0  0  0  0
  5 16  1  0  0  0  0
  6 17  1  0  0  0  0
M  END
