 xtb: 6.7.1 (edcfbbe)
          04112516053D

 26 26  0     0  0            999 V2000
   -4.7852   -0.5340   -0.0066 C   0  0  0  0  0  0  0  0  0  0  0  0
   -3.4816    0.2563   -0.0414 C   0  0  0  0  0  0  0  0  0  0  0  0
   -2.2918   -0.6318    0.3164 C   0  0  0  0  0  0  0  0  0  0  0  0
   -0.9363    0.0078    0.1581 C   0  0  0  0  0  0  0  0  0  0  0  0
   -0.7427    1.3768    0.0936 C   0  0  0  0  0  0  0  0  0  0  0  0
    0.5315    1.9077   -0.0369 C   0  0  0  0  0  0  0  0  0  0  0  0
    1.6361    1.0796   -0.1012 C   0  0  0  0  0  0  0  0  0  0  0  0
    1.4538   -0.3114   -0.0330 C   0  0  0  0  0  0  0  0  0  0  0  0
    0.1790   -0.8279    0.0933 C   0  0  0  0  0  0  0  0  0  0  0  0
    2.6143   -1.0513   -0.1047 O   0  0  0  0  0  0  0  0  0  0  0  0
    2.5172   -2.4589   -0.0416 C   0  0  0  0  0  0  0  0  0  0  0  0
    2.8837    1.6165   -0.2299 O   0  0  0  0  0  0  0  0  0  0  0  0
   -4.9506   -0.9535    0.9832 H   0  0  0  0  0  0  0  0  0  0  0  0
   -5.6268    0.1088   -0.2521 H   0  0  0  0  0  0  0  0  0  0  0  0
   -4.7568   -1.3507   -0.7245 H   0  0  0  0  0  0  0  0  0  0  0  0
   -3.5505    1.0852    0.6649 H   0  0  0  0  0  0  0  0  0  0  0  0
   -3.3349    0.6724   -1.0401 H   0  0  0  0  0  0  0  0  0  0  0  0
   -2.3239   -1.5281   -0.3087 H   0  0  0  0  0  0  0  0  0  0  0  0
   -2.3983   -0.9632    1.3544 H   0  0  0  0  0  0  0  0  0  0  0  0
   -1.5798    2.0528    0.1427 H   0  0  0  0  0  0  0  0  0  0  0  0
    0.6867    2.9735   -0.0904 H   0  0  0  0  0  0  0  0  0  0  0  0
    0.0291   -1.8950    0.1451 H   0  0  0  0  0  0  0  0  0  0  0  0
    2.0774   -2.7812    0.9057 H   0  0  0  0  0  0  0  0  0  0  0  0
    3.5408   -2.8201   -0.1126 H   0  0  0  0  0  0  0  0  0  0  0  0
    1.9294   -2.8507   -0.8757 H   0  0  0  0  0  0  0  0  0  0  0  0
    3.5316    0.8943   -0.2580 H   0  0  0  0  0  0  0  0  0  0  0  0
  1  2  1  0  0  0  0
  2  3  1  0  0  0  0
  3  4  1  0  0  0  0
  4  5  4  0  0  0  0
  5  6  4  0  0  0  0
  6  7  4  0  0  0  0
  7  8  4  0  0  0  0
  4  9  4  0  0  0  0
  8  9  4  0  0  0  0
  8 10  1  0  0  0  0
 10 11  1  0  0  0  0
  7 12  1  0  0  0  0
  1 13  1  0  0  0  0
  1 14  1  0  0  0  0
  1 15  1  0  0  0  0
  2 16  1  0  0  0  0
  2 17  1  0  0  0  0
  3 18  1  0  0  0  0
  3 19  1  0  0  0  0
  5 20  1  0  0  0  0
  6 21  1  0  0  0  0
  9 22  1  0  0  0  0
 11 23  1  0  0  0  0
 11 24  1  0  0  0  0
 11 25  1  0  0  0  0
 12 26  1  0  0  0  0
M  END
