 xtb: 6.7.1 (edcfbbe)
          04112516153D

 26 25  0     0  0            999 V2000
    1.5423   -0.3102   -1.7023 C   0  0  0  0  0  0  0  0  0  0  0  0
    1.8887   -0.6693   -0.2690 C   0  0  0  0  0  0  0  0  0  0  0  0
    2.9340   -1.7816   -0.2265 C   0  0  0  0  0  0  0  0  0  0  0  0
    0.7647   -0.9898    0.6531 C   0  0  0  0  0  0  0  0  0  0  0  0
   -0.4703   -0.7139    0.6644 N   0  0  0  0  0  0  0  0  0  0  0  0
   -1.0088    0.0025   -0.4350 O   0  0  0  0  0  0  0  0  0  0  0  0
   -2.3665    0.1786   -0.3979 C   0  0  0  0  0  0  0  0  0  0  0  0
   -2.8579    0.8170   -1.3119 O   0  0  0  0  0  0  0  0  0  0  0  0
   -3.0042   -0.3638    0.6305 N   0  0  0  0  0  0  0  0  0  0  0  0
   -4.4337   -0.2644    0.8143 C   0  0  0  0  0  0  0  0  0  0  0  0
    2.6749    0.7745    0.6323 S   0  0  0  0  0  0  0  0  0  0  0  0
    1.5474    2.1564    0.3103 C   0  0  0  0  0  0  0  0  0  0  0  0
    1.1151   -1.1808   -2.1971 H   0  0  0  0  0  0  0  0  0  0  0  0
    0.8171    0.4960   -1.7644 H   0  0  0  0  0  0  0  0  0  0  0  0
    2.4463   -0.0160   -2.2311 H   0  0  0  0  0  0  0  0  0  0  0  0
    2.5154   -2.6961   -0.6398 H   0  0  0  0  0  0  0  0  0  0  0  0
    3.2581   -1.9658    0.7945 H   0  0  0  0  0  0  0  0  0  0  0  0
    3.8008   -1.4923   -0.8141 H   0  0  0  0  0  0  0  0  0  0  0  0
    1.0568   -1.5165    1.5543 H   0  0  0  0  0  0  0  0  0  0  0  0
   -2.4475   -0.8585    1.3165 H   0  0  0  0  0  0  0  0  0  0  0  0
   -4.8414    0.3090   -0.0159 H   0  0  0  0  0  0  0  0  0  0  0  0
   -4.6548    0.2435    1.7518 H   0  0  0  0  0  0  0  0  0  0  0  0
   -4.8779   -1.2586    0.8235 H   0  0  0  0  0  0  0  0  0  0  0  0
    1.6583    2.4954   -0.7149 H   0  0  0  0  0  0  0  0  0  0  0  0
    1.8419    2.9418    0.9985 H   0  0  0  0  0  0  0  0  0  0  0  0
    0.5244    1.8551    0.5099 H   0  0  0  0  0  0  0  0  0  0  0  0
  1  2  1  0  0  0  0
  2  3  1  0  0  0  0
  2  4  1  0  0  0  0
  4  5  2  0  0  0  0
  5  6  1  0  0  0  0
  6  7  1  0  0  0  0
  7  8  2  0  0  0  0
  7  9  4  0  0  0  0
  9 10  1  0  0  0  0
  2 11  1  0  0  0  0
 11 12  1  0  0  0  0
  1 13  1  0  0  0  0
  1 14  1  0  0  0  0
  1 15  1  0  0  0  0
  3 16  1  0  0  0  0
  3 17  1  0  0  0  0
  3 18  1  0  0  0  0
  4 19  1  0  0  0  0
  9 20  1  0  0  0  0
 10 21  1  0  0  0  0
 10 22  1  0  0  0  0
 10 23  1  0  0  0  0
 12 24  1  0  0  0  0
 12 25  1  0  0  0  0
 12 26  1  0  0  0  0
M  END
