 xtb: 6.7.1 (edcfbbe)
          04112514343D

 17 16  0     0  0            999 V2000
   -1.3721   -0.8859   -1.1382 C   0  0  0  0  0  0  0  0  0  0  0  0
   -1.7351    0.1613   -0.0876 C   0  0  0  0  0  0  0  0  0  0  0  0
   -2.9492   -0.2789    0.7253 C   0  0  0  0  0  0  0  0  0  0  0  0
   -0.5640    0.4055    0.8711 C   0  0  0  0  0  0  0  0  0  0  0  0
    0.5713    0.9332    0.1800 O   0  0  0  0  0  0  0  0  0  0  0  0
    1.6065    0.1081   -0.1008 N   0  0  0  0  0  0  0  0  0  0  0  0
    1.5746   -1.0140    0.2996 O   0  0  0  0  0  0  0  0  0  0  0  0
    2.4701    0.6305   -0.7380 O   0  0  0  0  0  0  0  0  0  0  0  0
   -1.0573   -1.8135   -0.6641 H   0  0  0  0  0  0  0  0  0  0  0  0
   -0.5671   -0.5347   -1.7818 H   0  0  0  0  0  0  0  0  0  0  0  0
   -2.2321   -1.0949   -1.7680 H   0  0  0  0  0  0  0  0  0  0  0  0
   -1.9591    1.1054   -0.5929 H   0  0  0  0  0  0  0  0  0  0  0  0
   -3.2086    0.4702    1.4681 H   0  0  0  0  0  0  0  0  0  0  0  0
   -2.7436   -1.2174    1.2338 H   0  0  0  0  0  0  0  0  0  0  0  0
   -3.8022   -0.4231    0.0690 H   0  0  0  0  0  0  0  0  0  0  0  0
   -0.8210    1.1662    1.6090 H   0  0  0  0  0  0  0  0  0  0  0  0
   -0.2800   -0.5217    1.3760 H   0  0  0  0  0  0  0  0  0  0  0  0
  1  2  1  0  0  0  0
  2  3  1  0  0  0  0
  2  4  1  0  0  0  0
  4  5  1  0  0  0  0
  5  6  1  0  0  0  0
  6  7  4  0  0  0  0
  6  8  4  0  0  0  0
  1  9  1  0  0  0  0
  1 10  1  0  0  0  0
  1 11  1  0  0  0  0
  2 12  1  0  0  0  0
  3 13  1  0  0  0  0
  3 14  1  0  0  0  0
  3 15  1  0  0  0  0
  4 16  1  0  0  0  0
  4 17  1  0  0  0  0
M  END
