 xtb: 6.7.1 (edcfbbe)
          04112514233D

 23 22  0     0  0            999 V2000
    2.6856    1.1468    0.7960 C   0  0  0  0  0  0  0  0  0  0  0  0
    1.8577    0.3787   -0.2320 C   0  0  0  0  0  0  0  0  0  0  0  0
    2.7733   -0.2131   -1.3021 C   0  0  0  0  0  0  0  0  0  0  0  0
    1.0406   -0.7396    0.4278 C   0  0  0  0  0  0  0  0  0  0  0  0
   -0.1384   -0.2266    1.2502 C   0  0  0  0  0  0  0  0  0  0  0  0
   -1.0693    0.4993    0.4348 O   0  0  0  0  0  0  0  0  0  0  0  0
   -2.0074   -0.1826   -0.2130 C   0  0  0  0  0  0  0  0  0  0  0  0
   -2.1260   -1.3891   -0.1469 O   0  0  0  0  0  0  0  0  0  0  0  0
   -2.9042    0.7259   -0.9994 C   0  0  0  0  0  0  0  0  0  0  0  0
    3.2699    1.9196    0.3029 H   0  0  0  0  0  0  0  0  0  0  0  0
    3.3693    0.4736    1.3081 H   0  0  0  0  0  0  0  0  0  0  0  0
    2.0501    1.6253    1.5356 H   0  0  0  0  0  0  0  0  0  0  0  0
    1.1608    1.0737   -0.7130 H   0  0  0  0  0  0  0  0  0  0  0  0
    3.4667   -0.9215   -0.8545 H   0  0  0  0  0  0  0  0  0  0  0  0
    3.3483    0.5718   -1.7869 H   0  0  0  0  0  0  0  0  0  0  0  0
    2.1941   -0.7329   -2.0619 H   0  0  0  0  0  0  0  0  0  0  0  0
    1.6818   -1.3294    1.0837 H   0  0  0  0  0  0  0  0  0  0  0  0
    0.6454   -1.4052   -0.3438 H   0  0  0  0  0  0  0  0  0  0  0  0
   -0.6625   -1.0677    1.7146 H   0  0  0  0  0  0  0  0  0  0  0  0
    0.1783    0.4849    2.0122 H   0  0  0  0  0  0  0  0  0  0  0  0
   -2.3561    1.6075   -1.3141 H   0  0  0  0  0  0  0  0  0  0  0  0
   -3.7254    1.0353   -0.3563 H   0  0  0  0  0  0  0  0  0  0  0  0
   -3.3124    0.1895   -1.8498 H   0  0  0  0  0  0  0  0  0  0  0  0
  1  2  1  0  0  0  0
  2  3  1  0  0  0  0
  2  4  1  0  0  0  0
  4  5  1  0  0  0  0
  5  6  1  0  0  0  0
  6  7  1  0  0  0  0
  7  8  2  0  0  0  0
  7  9  1  0  0  0  0
  1 10  1  0  0  0  0
  1 11  1  0  0  0  0
  1 12  1  0  0  0  0
  2 13  1  0  0  0  0
  3 14  1  0  0  0  0
  3 15  1  0  0  0  0
  3 16  1  0  0  0  0
  4 17  1  0  0  0  0
  4 18  1  0  0  0  0
  5 19  1  0  0  0  0
  5 20  1  0  0  0  0
  9 21  1  0  0  0  0
  9 22  1  0  0  0  0
  9 23  1  0  0  0  0
M  END
