 xtb: 6.7.1 (edcfbbe)
          04112516113D

 17 16  0     0  0            999 V2000
   -2.8490    0.2489    0.9852 C   0  0  0  0  0  0  0  0  0  0  0  0
   -2.3092    0.1624   -0.4383 C   0  0  0  0  0  0  0  0  0  0  0  0
   -0.8149    0.4719   -0.5370 C   0  0  0  0  0  0  0  0  0  0  0  0
    0.0537   -0.6009    0.1414 C   0  0  0  0  0  0  0  0  0  0  0  0
    1.5051   -0.2650   -0.0809 C   0  0  0  0  0  0  0  0  0  0  0  0
    2.1609   -0.7080   -0.9973 O   0  0  0  0  0  0  0  0  0  0  0  0
    2.0555    0.6008    0.7678 O   0  0  0  0  0  0  0  0  0  0  0  0
   -2.4153   -0.5198    1.6188 H   0  0  0  0  0  0  0  0  0  0  0  0
   -2.6328    1.2234    1.4167 H   0  0  0  0  0  0  0  0  0  0  0  0
   -3.9270    0.1101    0.9824 H   0  0  0  0  0  0  0  0  0  0  0  0
   -2.8444    0.8797   -1.0633 H   0  0  0  0  0  0  0  0  0  0  0  0
   -2.4989   -0.8337   -0.8420 H   0  0  0  0  0  0  0  0  0  0  0  0
   -0.5299    0.5264   -1.5900 H   0  0  0  0  0  0  0  0  0  0  0  0
   -0.6193    1.4481   -0.0892 H   0  0  0  0  0  0  0  0  0  0  0  0
   -0.1479   -1.5682   -0.3189 H   0  0  0  0  0  0  0  0  0  0  0  0
   -0.1686   -0.6519    1.2064 H   0  0  0  0  0  0  0  0  0  0  0  0
    1.4576    0.8814    1.4846 H   0  0  0  0  0  0  0  0  0  0  0  0
  1  2  1  0  0  0  0
  2  3  1  0  0  0  0
  3  4  1  0  0  0  0
  4  5  1  0  0  0  0
  5  6  2  0  0  0  0
  5  7  1  0  0  0  0
  1  8  1  0  0  0  0
  1  9  1  0  0  0  0
  1 10  1  0  0  0  0
  2 11  1  0  0  0  0
  2 12  1  0  0  0  0
  3 13  1  0  0  0  0
  3 14  1  0  0  0  0
  4 15  1  0  0  0  0
  4 16  1  0  0  0  0
  7 17  1  0  0  0  0
M  END
