 xtb: 6.7.1 (edcfbbe)
          04112517153D

 20 19  0     0  0            999 V2000
   -2.3417   -1.2984   -0.2152 C   0  0  0  0  0  0  0  0  0  0  0  0
   -1.9234   -0.2303    0.7895 C   0  0  0  0  0  0  0  0  0  0  0  0
   -1.5565    1.1044    0.1387 C   0  0  0  0  0  0  0  0  0  0  0  0
   -0.3652    1.0042   -0.8231 C   0  0  0  0  0  0  0  0  0  0  0  0
    0.8536    0.4934   -0.1022 C   0  0  0  0  0  0  0  0  0  0  0  0
    1.4064    1.0531    0.8216 O   0  0  0  0  0  0  0  0  0  0  0  0
    1.2659   -0.6706   -0.5944 O   0  0  0  0  0  0  0  0  0  0  0  0
    2.4168   -1.2723    0.0028 C   0  0  0  0  0  0  0  0  0  0  0  0
   -1.5015   -1.6018   -0.8341 H   0  0  0  0  0  0  0  0  0  0  0  0
   -2.7106   -2.1777    0.3069 H   0  0  0  0  0  0  0  0  0  0  0  0
   -3.1340   -0.9230   -0.8584 H   0  0  0  0  0  0  0  0  0  0  0  0
   -2.7458   -0.0532    1.4859 H   0  0  0  0  0  0  0  0  0  0  0  0
   -1.0732   -0.5910    1.3745 H   0  0  0  0  0  0  0  0  0  0  0  0
   -1.3058    1.8207    0.9238 H   0  0  0  0  0  0  0  0  0  0  0  0
   -2.4153    1.4869   -0.4141 H   0  0  0  0  0  0  0  0  0  0  0  0
   -0.1359    2.0003   -1.2039 H   0  0  0  0  0  0  0  0  0  0  0  0
   -0.5858    0.3394   -1.6554 H   0  0  0  0  0  0  0  0  0  0  0  0
    3.2650   -0.5890   -0.0516 H   0  0  0  0  0  0  0  0  0  0  0  0
    2.6052   -2.1765   -0.5672 H   0  0  0  0  0  0  0  0  0  0  0  0
    2.2158   -1.5039    1.0495 H   0  0  0  0  0  0  0  0  0  0  0  0
  1  2  1  0  0  0  0
  2  3  1  0  0  0  0
  3  4  1  0  0  0  0
  4  5  1  0  0  0  0
  5  6  2  0  0  0  0
  5  7  1  0  0  0  0
  7  8  1  0  0  0  0
  1  9  1  0  0  0  0
  1 10  1  0  0  0  0
  1 11  1  0  0  0  0
  2 12  1  0  0  0  0
  2 13  1  0  0  0  0
  3 14  1  0  0  0  0
  3 15  1  0  0  0  0
  4 16  1  0  0  0  0
  4 17  1  0  0  0  0
  8 18  1  0  0  0  0
  8 19  1  0  0  0  0
  8 20  1  0  0  0  0
M  END
