 xtb: 6.7.1 (edcfbbe)
          04112516153D

 26 25  0     0  0            999 V2000
    1.5462   -1.0248   -1.7174 C   0  0  0  0  0  0  0  0  0  0  0  0
    1.8770   -0.6402   -0.2750 C   0  0  0  0  0  0  0  0  0  0  0  0
    3.2286   -1.2105    0.1324 C   0  0  0  0  0  0  0  0  0  0  0  0
    0.8076   -1.0545    0.6805 C   0  0  0  0  0  0  0  0  0  0  0  0
   -0.4370   -0.8329    0.6796 N   0  0  0  0  0  0  0  0  0  0  0  0
   -0.9551   -0.0821   -0.3952 O   0  0  0  0  0  0  0  0  0  0  0  0
   -2.3057    0.1480   -0.3448 C   0  0  0  0  0  0  0  0  0  0  0  0
   -2.7879    0.7813   -1.2660 O   0  0  0  0  0  0  0  0  0  0  0  0
   -2.9490   -0.3481    0.7038 N   0  0  0  0  0  0  0  0  0  0  0  0
   -4.3738   -0.2044    0.8951 C   0  0  0  0  0  0  0  0  0  0  0  0
    1.9246    1.2302   -0.2590 S   0  0  0  0  0  0  0  0  0  0  0  0
    2.4185    1.5955    1.4563 C   0  0  0  0  0  0  0  0  0  0  0  0
    2.3495   -0.6971   -2.3721 H   0  0  0  0  0  0  0  0  0  0  0  0
    1.4384   -2.1044   -1.7962 H   0  0  0  0  0  0  0  0  0  0  0  0
    0.6226   -0.5526   -2.0437 H   0  0  0  0  0  0  0  0  0  0  0  0
    4.0117   -0.7765   -0.4839 H   0  0  0  0  0  0  0  0  0  0  0  0
    3.2259   -2.2881   -0.0162 H   0  0  0  0  0  0  0  0  0  0  0  0
    3.4482   -1.0053    1.1765 H   0  0  0  0  0  0  0  0  0  0  0  0
    1.1154   -1.6213    1.5513 H   0  0  0  0  0  0  0  0  0  0  0  0
   -2.4059   -0.8609    1.3871 H   0  0  0  0  0  0  0  0  0  0  0  0
   -4.8454   -1.1852    0.9325 H   0  0  0  0  0  0  0  0  0  0  0  0
   -4.7718    0.3593    0.0537 H   0  0  0  0  0  0  0  0  0  0  0  0
   -4.5737    0.3333    1.8207 H   0  0  0  0  0  0  0  0  0  0  0  0
    2.3683    2.6762    1.5399 H   0  0  0  0  0  0  0  0  0  0  0  0
    3.4345    1.2594    1.6311 H   0  0  0  0  0  0  0  0  0  0  0  0
    1.7198    1.1378    2.1484 H   0  0  0  0  0  0  0  0  0  0  0  0
  1  2  1  0  0  0  0
  2  3  1  0  0  0  0
  2  4  1  0  0  0  0
  4  5  2  0  0  0  0
  5  6  1  0  0  0  0
  6  7  1  0  0  0  0
  7  8  2  0  0  0  0
  7  9  4  0  0  0  0
  9 10  1  0  0  0  0
  2 11  1  0  0  0  0
 11 12  1  0  0  0  0
  1 13  1  0  0  0  0
  1 14  1  0  0  0  0
  1 15  1  0  0  0  0
  3 16  1  0  0  0  0
  3 17  1  0  0  0  0
  3 18  1  0  0  0  0
  4 19  1  0  0  0  0
  9 20  1  0  0  0  0
 10 21  1  0  0  0  0
 10 22  1  0  0  0  0
 10 23  1  0  0  0  0
 12 24  1  0  0  0  0
 12 25  1  0  0  0  0
 12 26  1  0  0  0  0
M  END
