 xtb: 6.7.1 (edcfbbe)
          04112517153D

 20 19  0     0  0            999 V2000
   -2.3399   -1.2970   -0.1961 C   0  0  0  0  0  0  0  0  0  0  0  0
   -1.9213   -0.2187    0.7976 C   0  0  0  0  0  0  0  0  0  0  0  0
   -1.5546    1.1093    0.1332 C   0  0  0  0  0  0  0  0  0  0  0  0
   -0.3671    0.9985   -0.8322 C   0  0  0  0  0  0  0  0  0  0  0  0
    0.8533    0.4910   -0.1117 C   0  0  0  0  0  0  0  0  0  0  0  0
    1.4118    1.0579    0.8042 O   0  0  0  0  0  0  0  0  0  0  0  0
    1.2591   -0.6797   -0.5933 O   0  0  0  0  0  0  0  0  0  0  0  0
    2.4106   -1.2792    0.0050 C   0  0  0  0  0  0  0  0  0  0  0  0
   -1.4995   -1.6072   -0.8114 H   0  0  0  0  0  0  0  0  0  0  0  0
   -2.7093   -2.1706    0.3351 H   0  0  0  0  0  0  0  0  0  0  0  0
   -3.1317   -0.9280   -0.8434 H   0  0  0  0  0  0  0  0  0  0  0  0
   -2.7434   -0.0344    1.4923 H   0  0  0  0  0  0  0  0  0  0  0  0
   -1.0709   -0.5735    1.3859 H   0  0  0  0  0  0  0  0  0  0  0  0
   -1.2999    1.8324    0.9107 H   0  0  0  0  0  0  0  0  0  0  0  0
   -2.4147    1.4883   -0.4201 H   0  0  0  0  0  0  0  0  0  0  0  0
   -0.1370    1.9908   -1.2222 H   0  0  0  0  0  0  0  0  0  0  0  0
   -0.5924    0.3271   -1.6580 H   0  0  0  0  0  0  0  0  0  0  0  0
    2.5595   -2.2177   -0.5192 H   0  0  0  0  0  0  0  0  0  0  0  0
    2.2343   -1.4471    1.0683 H   0  0  0  0  0  0  0  0  0  0  0  0
    3.2742   -0.6234   -0.1109 H   0  0  0  0  0  0  0  0  0  0  0  0
  1  2  1  0  0  0  0
  2  3  1  0  0  0  0
  3  4  1  0  0  0  0
  4  5  1  0  0  0  0
  5  6  2  0  0  0  0
  5  7  1  0  0  0  0
  7  8  1  0  0  0  0
  1  9  1  0  0  0  0
  1 10  1  0  0  0  0
  1 11  1  0  0  0  0
  2 12  1  0  0  0  0
  2 13  1  0  0  0  0
  3 14  1  0  0  0  0
  3 15  1  0  0  0  0
  4 16  1  0  0  0  0
  4 17  1  0  0  0  0
  8 18  1  0  0  0  0
  8 19  1  0  0  0  0
  8 20  1  0  0  0  0
M  END
