 xtb: 6.7.1 (edcfbbe)
          04112516593D

 20 19  0     0  0            999 V2000
   -3.6148   -0.7406   -0.0313 C   0  0  0  0  0  0  0  0  0  0  0  0
   -2.1803   -0.3924   -0.4093 C   0  0  0  0  0  0  0  0  0  0  0  0
   -1.6100    0.6973    0.4970 C   0  0  0  0  0  0  0  0  0  0  0  0
   -0.1784    1.0583    0.1303 C   0  0  0  0  0  0  0  0  0  0  0  0
    0.6648   -0.0696    0.4076 O   0  0  0  0  0  0  0  0  0  0  0  0
    1.9044   -0.0496   -0.0634 C   0  0  0  0  0  0  0  0  0  0  0  0
    2.3550    0.8781   -0.7058 O   0  0  0  0  0  0  0  0  0  0  0  0
    2.6529   -1.3014    0.2820 C   0  0  0  0  0  0  0  0  0  0  0  0
   -4.2543    0.1344   -0.1196 H   0  0  0  0  0  0  0  0  0  0  0  0
   -4.0022   -1.5174   -0.6853 H   0  0  0  0  0  0  0  0  0  0  0  0
   -3.6624   -1.0986    0.9941 H   0  0  0  0  0  0  0  0  0  0  0  0
   -1.5539   -1.2828   -0.3313 H   0  0  0  0  0  0  0  0  0  0  0  0
   -2.1490   -0.0509   -1.4463 H   0  0  0  0  0  0  0  0  0  0  0  0
   -2.2169    1.5996    0.4184 H   0  0  0  0  0  0  0  0  0  0  0  0
   -1.6288    0.3572    1.5331 H   0  0  0  0  0  0  0  0  0  0  0  0
   -0.0834    1.3124   -0.9309 H   0  0  0  0  0  0  0  0  0  0  0  0
    0.1825    1.9081    0.7189 H   0  0  0  0  0  0  0  0  0  0  0  0
    2.1423   -1.8301    1.0794 H   0  0  0  0  0  0  0  0  0  0  0  0
    3.6699   -1.0482    0.5661 H   0  0  0  0  0  0  0  0  0  0  0  0
    2.6967   -1.9319   -0.6035 H   0  0  0  0  0  0  0  0  0  0  0  0
  1  2  1  0  0  0  0
  2  3  1  0  0  0  0
  3  4  1  0  0  0  0
  4  5  1  0  0  0  0
  5  6  1  0  0  0  0
  6  7  2  0  0  0  0
  6  8  1  0  0  0  0
  1  9  1  0  0  0  0
  1 10  1  0  0  0  0
  1 11  1  0  0  0  0
  2 12  1  0  0  0  0
  2 13  1  0  0  0  0
  3 14  1  0  0  0  0
  3 15  1  0  0  0  0
  4 16  1  0  0  0  0
  4 17  1  0  0  0  0
  8 18  1  0  0  0  0
  8 19  1  0  0  0  0
  8 20  1  0  0  0  0
M  END
