 xtb: 6.7.1 (edcfbbe)
          04112514463D

 23 22  0     0  0            999 V2000
    2.9409   -0.8753    0.3088 C   0  0  0  0  0  0  0  0  0  0  0  0
    2.3301    0.3167   -0.4200 C   0  0  0  0  0  0  0  0  0  0  0  0
    0.9532    0.7157    0.1152 C   0  0  0  0  0  0  0  0  0  0  0  0
   -0.1331   -0.3098   -0.2040 C   0  0  0  0  0  0  0  0  0  0  0  0
   -1.5129    0.0634    0.3512 C   0  0  0  0  0  0  0  0  0  0  0  0
   -2.1082    1.2731   -0.3663 C   0  0  0  0  0  0  0  0  0  0  0  0
   -2.4621   -1.1284    0.2269 C   0  0  0  0  0  0  0  0  0  0  0  0
    3.9463   -1.0659   -0.0593 H   0  0  0  0  0  0  0  0  0  0  0  0
    2.9980   -0.6778    1.3770 H   0  0  0  0  0  0  0  0  0  0  0  0
    2.3495   -1.7739    0.1555 H   0  0  0  0  0  0  0  0  0  0  0  0
    2.2488    0.0887   -1.4851 H   0  0  0  0  0  0  0  0  0  0  0  0
    3.0028    1.1714   -0.3162 H   0  0  0  0  0  0  0  0  0  0  0  0
    1.0146    0.8510    1.1979 H   0  0  0  0  0  0  0  0  0  0  0  0
    0.6816    1.6772   -0.3242 H   0  0  0  0  0  0  0  0  0  0  0  0
   -0.2052   -0.4332   -1.2874 H   0  0  0  0  0  0  0  0  0  0  0  0
    0.1547   -1.2733    0.2205 H   0  0  0  0  0  0  0  0  0  0  0  0
   -1.4021    0.3081    1.4140 H   0  0  0  0  0  0  0  0  0  0  0  0
   -3.1016    1.4887    0.0206 H   0  0  0  0  0  0  0  0  0  0  0  0
   -1.4924    2.1570   -0.2249 H   0  0  0  0  0  0  0  0  0  0  0  0
   -2.1912    1.0757   -1.4330 H   0  0  0  0  0  0  0  0  0  0  0  0
   -2.5834   -1.4059   -0.8180 H   0  0  0  0  0  0  0  0  0  0  0  0
   -3.4407   -0.8818    0.6322 H   0  0  0  0  0  0  0  0  0  0  0  0
   -2.0743   -1.9886    0.7679 H   0  0  0  0  0  0  0  0  0  0  0  0
  1  2  1  0  0  0  0
  2  3  1  0  0  0  0
  3  4  1  0  0  0  0
  4  5  1  0  0  0  0
  5  6  1  0  0  0  0
  5  7  1  0  0  0  0
  1  8  1  0  0  0  0
  1  9  1  0  0  0  0
  1 10  1  0  0  0  0
  2 11  1  0  0  0  0
  2 12  1  0  0  0  0
  3 13  1  0  0  0  0
  3 14  1  0  0  0  0
  4 15  1  0  0  0  0
  4 16  1  0  0  0  0
  5 17  1  0  0  0  0
  6 18  1  0  0  0  0
  6 19  1  0  0  0  0
  6 20  1  0  0  0  0
  7 21  1  0  0  0  0
  7 22  1  0  0  0  0
  7 23  1  0  0  0  0
M  END
