 xtb: 6.7.1 (edcfbbe)
          04112516263D

 20 19  0     0  0            999 V2000
   -3.4789   -0.0971   -0.4143 C   0  0  0  0  0  0  0  0  0  0  0  0
   -2.6086   -0.2369    0.8292 C   0  0  0  0  0  0  0  0  0  0  0  0
   -1.1947    0.3132    0.6415 C   0  0  0  0  0  0  0  0  0  0  0  0
   -0.3748   -0.5013   -0.3713 C   0  0  0  0  0  0  0  0  0  0  0  0
    1.0155    0.0664   -0.4385 C   0  0  0  0  0  0  0  0  0  0  0  0
    1.3737    0.9525   -1.1864 O   0  0  0  0  0  0  0  0  0  0  0  0
    1.8197   -0.4944    0.4582 O   0  0  0  0  0  0  0  0  0  0  0  0
    3.1622   -0.0090    0.5387 C   0  0  0  0  0  0  0  0  0  0  0  0
   -4.4968   -0.4093   -0.1952 H   0  0  0  0  0  0  0  0  0  0  0  0
   -3.5016    0.9378   -0.7478 H   0  0  0  0  0  0  0  0  0  0  0  0
   -3.1046   -0.7134   -1.2269 H   0  0  0  0  0  0  0  0  0  0  0  0
   -3.0764    0.3088    1.6508 H   0  0  0  0  0  0  0  0  0  0  0  0
   -2.5507   -1.2878    1.1180 H   0  0  0  0  0  0  0  0  0  0  0  0
   -0.6759    0.2956    1.6023 H   0  0  0  0  0  0  0  0  0  0  0  0
   -1.2457    1.3506    0.3035 H   0  0  0  0  0  0  0  0  0  0  0  0
   -0.8243   -0.4303   -1.3602 H   0  0  0  0  0  0  0  0  0  0  0  0
   -0.3210   -1.5403   -0.0489 H   0  0  0  0  0  0  0  0  0  0  0  0
    3.1608    1.0513    0.7938 H   0  0  0  0  0  0  0  0  0  0  0  0
    3.6639   -0.1417   -0.4205 H   0  0  0  0  0  0  0  0  0  0  0  0
    3.6406   -0.5976    1.3149 H   0  0  0  0  0  0  0  0  0  0  0  0
  1  2  1  0  0  0  0
  2  3  1  0  0  0  0
  3  4  1  0  0  0  0
  4  5  1  0  0  0  0
  5  6  2  0  0  0  0
  5  7  1  0  0  0  0
  7  8  1  0  0  0  0
  1  9  1  0  0  0  0
  1 10  1  0  0  0  0
  1 11  1  0  0  0  0
  2 12  1  0  0  0  0
  2 13  1  0  0  0  0
  3 14  1  0  0  0  0
  3 15  1  0  0  0  0
  4 16  1  0  0  0  0
  4 17  1  0  0  0  0
  8 18  1  0  0  0  0
  8 19  1  0  0  0  0
  8 20  1  0  0  0  0
M  END
