 xtb: 6.7.1 (edcfbbe)
          04112516133D

 33 34  0     0  0            999 V2000
   -3.1156    2.0351   -1.1478 C   0  0  0  0  0  0  0  0  0  0  0  0
   -2.6672    0.9874   -0.1720 C   0  0  0  0  0  0  0  0  0  0  0  0
   -3.3544    0.8270    1.0233 C   0  0  0  0  0  0  0  0  0  0  0  0
   -2.9839   -0.1509    1.9282 C   0  0  0  0  0  0  0  0  0  0  0  0
   -1.8928   -0.9504    1.6606 C   0  0  0  0  0  0  0  0  0  0  0  0
   -1.1667   -0.7781    0.4855 C   0  0  0  0  0  0  0  0  0  0  0  0
   -1.5773    0.1634   -0.4668 C   0  0  0  0  0  0  0  0  0  0  0  0
   -0.8915    0.2807   -1.7962 C   0  0  0  0  0  0  0  0  0  0  0  0
   -0.0735   -1.6235    0.2562 N   0  0  0  0  0  0  0  0  0  0  0  0
    1.1760   -1.2939   -0.1858 C   0  0  0  0  0  0  0  0  0  0  0  0
    1.9664   -2.3062   -0.7540 C   0  0  0  0  0  0  0  0  0  0  0  0
    3.1835   -2.0262   -1.3287 C   0  0  0  0  0  0  0  0  0  0  0  0
    3.6596   -0.7192   -1.3661 C   0  0  0  0  0  0  0  0  0  0  0  0
    2.9307    0.2802   -0.7622 C   0  0  0  0  0  0  0  0  0  0  0  0
    1.7100    0.0118   -0.1338 C   0  0  0  0  0  0  0  0  0  0  0  0
    1.1296    1.0715    0.7003 C   0  0  0  0  0  0  0  0  0  0  0  0
    0.5404    0.8939    1.7525 O   0  0  0  0  0  0  0  0  0  0  0  0
    1.3867    2.3053    0.2546 O   0  0  0  0  0  0  0  0  0  0  0  0
   -3.5673    1.5709   -2.0241 H   0  0  0  0  0  0  0  0  0  0  0  0
   -3.8548    2.6862   -0.6893 H   0  0  0  0  0  0  0  0  0  0  0  0
   -2.2754    2.6389   -1.4836 H   0  0  0  0  0  0  0  0  0  0  0  0
   -4.1941    1.4700    1.2433 H   0  0  0  0  0  0  0  0  0  0  0  0
   -3.5355   -0.2786    2.8473 H   0  0  0  0  0  0  0  0  0  0  0  0
   -1.5741   -1.6979    2.3714 H   0  0  0  0  0  0  0  0  0  0  0  0
   -0.1806    1.1082   -1.7998 H   0  0  0  0  0  0  0  0  0  0  0  0
   -0.3470   -0.6283   -2.0368 H   0  0  0  0  0  0  0  0  0  0  0  0
   -1.6232    0.4622   -2.5794 H   0  0  0  0  0  0  0  0  0  0  0  0
   -0.2059   -2.5881    0.5234 H   0  0  0  0  0  0  0  0  0  0  0  0
    1.5898   -3.3183   -0.7495 H   0  0  0  0  0  0  0  0  0  0  0  0
    3.7649   -2.8236   -1.7655 H   0  0  0  0  0  0  0  0  0  0  0  0
    4.6016   -0.4946   -1.8395 H   0  0  0  0  0  0  0  0  0  0  0  0
    3.3092    1.2903   -0.7335 H   0  0  0  0  0  0  0  0  0  0  0  0
    1.0883    2.9818    0.8905 H   0  0  0  0  0  0  0  0  0  0  0  0
  1  2  1  0  0  0  0
  2  3  4  0  0  0  0
  3  4  4  0  0  0  0
  4  5  4  0  0  0  0
  5  6  4  0  0  0  0
  2  7  4  0  0  0  0
  6  7  4  0  0  0  0
  7  8  1  0  0  0  0
  6  9  1  0  0  0  0
  9 10  1  0  0  0  0
 10 11  4  0  0  0  0
 11 12  4  0  0  0  0
 12 13  4  0  0  0  0
 13 14  4  0  0  0  0
 10 15  4  0  0  0  0
 14 15  4  0  0  0  0
 15 16  1  0  0  0  0
 16 17  2  0  0  0  0
 16 18  1  0  0  0  0
  1 19  1  0  0  0  0
  1 20  1  0  0  0  0
  1 21  1  0  0  0  0
  3 22  1  0  0  0  0
  4 23  1  0  0  0  0
  5 24  1  0  0  0  0
  8 25  1  0  0  0  0
  8 26  1  0  0  0  0
  8 27  1  0  0  0  0
  9 28  1  0  0  0  0
 11 29  1  0  0  0  0
 12 30  1  0  0  0  0
 13 31  1  0  0  0  0
 14 32  1  0  0  0  0
 18 33  1  0  0  0  0
M  END
