 xtb: 6.7.1 (edcfbbe)
          04112516413D

 26 25  0     0  0            999 V2000
    3.1559   -1.4479   -0.7560 C   0  0  0  0  0  0  0  0  0  0  0  0
    1.9411   -0.7176   -0.1919 C   0  0  0  0  0  0  0  0  0  0  0  0
    2.0225   -0.6328    1.3256 C   0  0  0  0  0  0  0  0  0  0  0  0
    0.6830   -1.3668   -0.6748 C   0  0  0  0  0  0  0  0  0  0  0  0
   -0.5321   -1.1116   -0.4389 N   0  0  0  0  0  0  0  0  0  0  0  0
   -0.7921   -0.0330    0.4390 O   0  0  0  0  0  0  0  0  0  0  0  0
   -2.1153    0.2685    0.6254 C   0  0  0  0  0  0  0  0  0  0  0  0
   -2.3554    1.2131    1.3572 O   0  0  0  0  0  0  0  0  0  0  0  0
   -2.9897   -0.4982   -0.0087 N   0  0  0  0  0  0  0  0  0  0  0  0
   -4.4188   -0.3050    0.0780 C   0  0  0  0  0  0  0  0  0  0  0  0
    1.9572    0.9809   -1.0034 S   0  0  0  0  0  0  0  0  0  0  0  0
    1.4731    2.1710    0.2759 C   0  0  0  0  0  0  0  0  0  0  0  0
    3.1713   -2.4757   -0.4009 H   0  0  0  0  0  0  0  0  0  0  0  0
    3.1284   -1.4432   -1.8427 H   0  0  0  0  0  0  0  0  0  0  0  0
    4.0668   -0.9495   -0.4365 H   0  0  0  0  0  0  0  0  0  0  0  0
    1.1625   -0.1227    1.7511 H   0  0  0  0  0  0  0  0  0  0  0  0
    2.9304   -0.1127    1.6205 H   0  0  0  0  0  0  0  0  0  0  0  0
    2.0563   -1.6429    1.7301 H   0  0  0  0  0  0  0  0  0  0  0  0
    0.7923   -2.1828   -1.3780 H   0  0  0  0  0  0  0  0  0  0  0  0
   -2.6227   -1.2422   -0.5893 H   0  0  0  0  0  0  0  0  0  0  0  0
   -4.6059    0.5442    0.7323 H   0  0  0  0  0  0  0  0  0  0  0  0
   -4.8903   -1.1950    0.4921 H   0  0  0  0  0  0  0  0  0  0  0  0
   -4.8278   -0.1008   -0.9103 H   0  0  0  0  0  0  0  0  0  0  0  0
    1.4680    3.1307   -0.2319 H   0  0  0  0  0  0  0  0  0  0  0  0
    2.2067    2.1763    1.0746 H   0  0  0  0  0  0  0  0  0  0  0  0
    0.4797    1.9474    0.6523 H   0  0  0  0  0  0  0  0  0  0  0  0
  1  2  1  0  0  0  0
  2  3  1  0  0  0  0
  2  4  1  0  0  0  0
  4  5  2  0  0  0  0
  5  6  1  0  0  0  0
  6  7  1  0  0  0  0
  7  8  2  0  0  0  0
  7  9  4  0  0  0  0
  9 10  1  0  0  0  0
  2 11  1  0  0  0  0
 11 12  1  0  0  0  0
  1 13  1  0  0  0  0
  1 14  1  0  0  0  0
  1 15  1  0  0  0  0
  3 16  1  0  0  0  0
  3 17  1  0  0  0  0
  3 18  1  0  0  0  0
  4 19  1  0  0  0  0
  9 20  1  0  0  0  0
 10 21  1  0  0  0  0
 10 22  1  0  0  0  0
 10 23  1  0  0  0  0
 12 24  1  0  0  0  0
 12 25  1  0  0  0  0
 12 26  1  0  0  0  0
M  END
