 xtb: 6.7.1 (edcfbbe)
          04112517153D

 20 19  0     0  0            999 V2000
   -3.2953   -0.8481   -0.3557 C   0  0  0  0  0  0  0  0  0  0  0  0
   -1.8973   -0.6275    0.2093 C   0  0  0  0  0  0  0  0  0  0  0  0
   -1.4997    0.8465    0.1667 C   0  0  0  0  0  0  0  0  0  0  0  0
   -0.1136    1.0816    0.7749 C   0  0  0  0  0  0  0  0  0  0  0  0
    0.9548    0.4282   -0.0619 C   0  0  0  0  0  0  0  0  0  0  0  0
    1.1168    0.6035   -1.2513 O   0  0  0  0  0  0  0  0  0  0  0  0
    1.7212   -0.3816    0.6618 O   0  0  0  0  0  0  0  0  0  0  0  0
    2.7854   -1.0618   -0.0089 C   0  0  0  0  0  0  0  0  0  0  0  0
   -3.5595   -1.9018   -0.3198 H   0  0  0  0  0  0  0  0  0  0  0  0
   -4.0292   -0.2882    0.2189 H   0  0  0  0  0  0  0  0  0  0  0  0
   -3.3431   -0.5162   -1.3902 H   0  0  0  0  0  0  0  0  0  0  0  0
   -1.8610   -0.9826    1.2414 H   0  0  0  0  0  0  0  0  0  0  0  0
   -1.1752   -1.2107   -0.3684 H   0  0  0  0  0  0  0  0  0  0  0  0
   -2.2328    1.4366    0.7177 H   0  0  0  0  0  0  0  0  0  0  0  0
   -1.4902    1.1908   -0.8695 H   0  0  0  0  0  0  0  0  0  0  0  0
   -0.0552    0.6832    1.7870 H   0  0  0  0  0  0  0  0  0  0  0  0
    0.0950    2.1525    0.7945 H   0  0  0  0  0  0  0  0  0  0  0  0
    3.2860   -1.6481    0.7548 H   0  0  0  0  0  0  0  0  0  0  0  0
    3.4659   -0.3377   -0.4582 H   0  0  0  0  0  0  0  0  0  0  0  0
    2.3817   -1.7026   -0.7938 H   0  0  0  0  0  0  0  0  0  0  0  0
  1  2  1  0  0  0  0
  2  3  1  0  0  0  0
  3  4  1  0  0  0  0
  4  5  1  0  0  0  0
  5  6  2  0  0  0  0
  5  7  1  0  0  0  0
  7  8  1  0  0  0  0
  1  9  1  0  0  0  0
  1 10  1  0  0  0  0
  1 11  1  0  0  0  0
  2 12  1  0  0  0  0
  2 13  1  0  0  0  0
  3 14  1  0  0  0  0
  3 15  1  0  0  0  0
  4 16  1  0  0  0  0
  4 17  1  0  0  0  0
  8 18  1  0  0  0  0
  8 19  1  0  0  0  0
  8 20  1  0  0  0  0
M  END
