 xtb: 6.7.1 (edcfbbe)
          04112516273D

 20 19  0     0  0            999 V2000
    3.1608   -1.4248   -0.3745 C   0  0  0  0  0  0  0  0  0  0  0  0
    2.3992   -0.1595   -0.1381 C   0  0  0  0  0  0  0  0  0  0  0  0
    2.7819    0.7807    0.5242 O   0  0  0  0  0  0  0  0  0  0  0  0
    1.2238   -0.1713   -0.7735 O   0  0  0  0  0  0  0  0  0  0  0  0
    0.3894    0.9802   -0.6554 C   0  0  0  0  0  0  0  0  0  0  0  0
   -0.3898    0.9791    0.6590 C   0  0  0  0  0  0  0  0  0  0  0  0
   -1.2249   -0.1721    0.7751 O   0  0  0  0  0  0  0  0  0  0  0  0
   -2.3996   -0.1588    0.1382 C   0  0  0  0  0  0  0  0  0  0  0  0
   -2.7814    0.7826   -0.5227 O   0  0  0  0  0  0  0  0  0  0  0  0
   -3.1606   -1.4254    0.3700 C   0  0  0  0  0  0  0  0  0  0  0  0
    3.5874   -1.3899   -1.3746 H   0  0  0  0  0  0  0  0  0  0  0  0
    2.4862   -2.2734   -0.3220 H   0  0  0  0  0  0  0  0  0  0  0  0
    3.9601   -1.5124    0.3539 H   0  0  0  0  0  0  0  0  0  0  0  0
    1.0029    1.8845   -0.6988 H   0  0  0  0  0  0  0  0  0  0  0  0
   -0.2928    0.9335   -1.5051 H   0  0  0  0  0  0  0  0  0  0  0  0
   -1.0027    1.8838    0.7044 H   0  0  0  0  0  0  0  0  0  0  0  0
    0.2925    0.9302    1.5085 H   0  0  0  0  0  0  0  0  0  0  0  0
   -3.9890   -1.4874   -0.3278 H   0  0  0  0  0  0  0  0  0  0  0  0
   -3.5429   -1.4196    1.3883 H   0  0  0  0  0  0  0  0  0  0  0  0
   -2.4945   -2.2759    0.2634 H   0  0  0  0  0  0  0  0  0  0  0  0
  1  2  1  0  0  0  0
  2  3  2  0  0  0  0
  2  4  1  0  0  0  0
  4  5  1  0  0  0  0
  5  6  1  0  0  0  0
  6  7  1  0  0  0  0
  7  8  1  0  0  0  0
  8  9  2  0  0  0  0
  8 10  1  0  0  0  0
  1 11  1  0  0  0  0
  1 12  1  0  0  0  0
  1 13  1  0  0  0  0
  5 14  1  0  0  0  0
  5 15  1  0  0  0  0
  6 16  1  0  0  0  0
  6 17  1  0  0  0  0
 10 18  1  0  0  0  0
 10 19  1  0  0  0  0
 10 20  1  0  0  0  0
M  END
