 xtb: 6.7.1 (edcfbbe)
          04112516273D

 19 18  0     0  0            999 V2000
   -3.4669   -0.0293    0.2058 C   0  0  0  0  0  0  0  0  0  0  0  0
   -2.0068   -0.4050   -0.0204 C   0  0  0  0  0  0  0  0  0  0  0  0
   -1.1373    0.8328   -0.2359 C   0  0  0  0  0  0  0  0  0  0  0  0
    0.3112    0.5062   -0.5989 C   0  0  0  0  0  0  0  0  0  0  0  0
    1.0766   -0.1615    0.5495 C   0  0  0  0  0  0  0  0  0  0  0  0
    2.4719   -0.3456    0.2072 C   0  0  0  0  0  0  0  0  0  0  0  0
    3.6206   -0.4869   -0.0986 C   0  0  0  0  0  0  0  0  0  0  0  0
   -3.8611    0.5068   -0.6548 H   0  0  0  0  0  0  0  0  0  0  0  0
   -3.5641    0.6104    1.0803 H   0  0  0  0  0  0  0  0  0  0  0  0
   -4.0713   -0.9194    0.3623 H   0  0  0  0  0  0  0  0  0  0  0  0
   -1.6483   -0.9660    0.8443 H   0  0  0  0  0  0  0  0  0  0  0  0
   -1.9313   -1.0545   -0.8957 H   0  0  0  0  0  0  0  0  0  0  0  0
   -1.1554    1.4485    0.6668 H   0  0  0  0  0  0  0  0  0  0  0  0
   -1.5698    1.4252   -1.0460 H   0  0  0  0  0  0  0  0  0  0  0  0
    0.8264    1.4314   -0.8688 H   0  0  0  0  0  0  0  0  0  0  0  0
    0.3313   -0.1492   -1.4728 H   0  0  0  0  0  0  0  0  0  0  0  0
    0.6429   -1.1380    0.7766 H   0  0  0  0  0  0  0  0  0  0  0  0
    1.0130    0.4616    1.4459 H   0  0  0  0  0  0  0  0  0  0  0  0
    4.6292   -0.6157   -0.3550 H   0  0  0  0  0  0  0  0  0  0  0  0
  1  2  1  0  0  0  0
  2  3  1  0  0  0  0
  3  4  1  0  0  0  0
  4  5  1  0  0  0  0
  5  6  1  0  0  0  0
  6  7  3  0  0  0  0
  1  8  1  0  0  0  0
  1  9  1  0  0  0  0
  1 10  1  0  0  0  0
  2 11  1  0  0  0  0
  2 12  1  0  0  0  0
  3 13  1  0  0  0  0
  3 14  1  0  0  0  0
  4 15  1  0  0  0  0
  4 16  1  0  0  0  0
  5 17  1  0  0  0  0
  5 18  1  0  0  0  0
  7 19  1  0  0  0  0
M  END
