 xtb: 6.7.1 (edcfbbe)
          04112514053D

 17 16  0     0  0            999 V2000
    2.4420   -1.3084   -0.0991 C   0  0  0  0  0  0  0  0  0  0  0  0
    2.5659    0.1725    0.2384 C   0  0  0  0  0  0  0  0  0  0  0  0
    1.3870    0.9779   -0.3236 C   0  0  0  0  0  0  0  0  0  0  0  0
    0.1072    0.5963    0.3195 C   0  0  0  0  0  0  0  0  0  0  0  0
   -1.0130    0.2586   -0.3314 C   0  0  0  0  0  0  0  0  0  0  0  0
   -2.2250   -0.0986    0.3661 C   0  0  0  0  0  0  0  0  0  0  0  0
   -3.2769   -0.4158   -0.1607 O   0  0  0  0  0  0  0  0  0  0  0  0
    1.5297   -1.7235    0.3241 H   0  0  0  0  0  0  0  0  0  0  0  0
    2.4129   -1.4530   -1.1766 H   0  0  0  0  0  0  0  0  0  0  0  0
    3.2896   -1.8612    0.2978 H   0  0  0  0  0  0  0  0  0  0  0  0
    3.4927    0.5641   -0.1826 H   0  0  0  0  0  0  0  0  0  0  0  0
    2.6086    0.2984    1.3215 H   0  0  0  0  0  0  0  0  0  0  0  0
    1.3246    0.8461   -1.4041 H   0  0  0  0  0  0  0  0  0  0  0  0
    1.5639    2.0370   -0.1158 H   0  0  0  0  0  0  0  0  0  0  0  0
    0.1055    0.5959    1.4030 H   0  0  0  0  0  0  0  0  0  0  0  0
   -1.0569    0.2393   -1.4111 H   0  0  0  0  0  0  0  0  0  0  0  0
   -2.1512   -0.0726    1.4696 H   0  0  0  0  0  0  0  0  0  0  0  0
  1  2  1  0  0  0  0
  2  3  1  0  0  0  0
  3  4  1  0  0  0  0
  4  5  2  0  0  0  0
  5  6  1  0  0  0  0
  6  7  2  0  0  0  0
  1  8  1  0  0  0  0
  1  9  1  0  0  0  0
  1 10  1  0  0  0  0
  2 11  1  0  0  0  0
  2 12  1  0  0  0  0
  3 13  1  0  0  0  0
  3 14  1  0  0  0  0
  4 15  1  0  0  0  0
  5 16  1  0  0  0  0
  6 17  1  0  0  0  0
M  END
