 xtb: 6.7.1 (edcfbbe)
          04112514483D

 18 17  0     0  0            999 V2000
    2.7254    0.5275   -0.1361 C   0  0  0  0  0  0  0  0  0  0  0  0
    1.2613    0.4351    0.2767 C   0  0  0  0  0  0  0  0  0  0  0  0
    0.6421   -0.9021   -0.1231 C   0  0  0  0  0  0  0  0  0  0  0  0
   -0.8323   -0.9975    0.2825 C   0  0  0  0  0  0  0  0  0  0  0  0
   -1.6747   -0.0017   -0.4483 C   0  0  0  0  0  0  0  0  0  0  0  0
   -2.4400    0.9058    0.1285 C   0  0  0  0  0  0  0  0  0  0  0  0
    3.3047   -0.2634    0.3355 H   0  0  0  0  0  0  0  0  0  0  0  0
    3.1464    1.4853    0.1595 H   0  0  0  0  0  0  0  0  0  0  0  0
    2.8240    0.4270   -1.2147 H   0  0  0  0  0  0  0  0  0  0  0  0
    1.1802    0.5588    1.3591 H   0  0  0  0  0  0  0  0  0  0  0  0
    0.6967    1.2453   -0.1904 H   0  0  0  0  0  0  0  0  0  0  0  0
    0.7279   -1.0302   -1.2047 H   0  0  0  0  0  0  0  0  0  0  0  0
    1.1975   -1.7128    0.3536 H   0  0  0  0  0  0  0  0  0  0  0  0
   -1.1948   -2.0021    0.0465 H   0  0  0  0  0  0  0  0  0  0  0  0
   -0.9285   -0.8452    1.3591 H   0  0  0  0  0  0  0  0  0  0  0  0
   -1.6226   -0.0613   -1.5283 H   0  0  0  0  0  0  0  0  0  0  0  0
   -3.0330    1.6011   -0.4411 H   0  0  0  0  0  0  0  0  0  0  0  0
   -2.5083    0.9886    1.2010 H   0  0  0  0  0  0  0  0  0  0  0  0
  1  2  1  0  0  0  0
  2  3  1  0  0  0  0
  3  4  1  0  0  0  0
  4  5  1  0  0  0  0
  5  6  2  0  0  0  0
  1  7  1  0  0  0  0
  1  8  1  0  0  0  0
  1  9  1  0  0  0  0
  2 10  1  0  0  0  0
  2 11  1  0  0  0  0
  3 12  1  0  0  0  0
  3 13  1  0  0  0  0
  4 14  1  0  0  0  0
  4 15  1  0  0  0  0
  5 16  1  0  0  0  0
  6 17  1  0  0  0  0
  6 18  1  0  0  0  0
M  END
