 xtb: 6.7.1 (edcfbbe)
          04112516013D

 20 19  0     0  0            999 V2000
   -2.1384   -1.3111    0.0846 C   0  0  0  0  0  0  0  0  0  0  0  0
   -2.5154    0.1594    0.2224 C   0  0  0  0  0  0  0  0  0  0  0  0
   -1.3248    1.0637    0.5437 C   0  0  0  0  0  0  0  0  0  0  0  0
   -0.3094    1.1823   -0.5919 C   0  0  0  0  0  0  0  0  0  0  0  0
    0.4725   -0.0074   -0.7636 O   0  0  0  0  0  0  0  0  0  0  0  0
    1.5456   -0.1739    0.0006 C   0  0  0  0  0  0  0  0  0  0  0  0
    1.9118    0.6347    0.8291 O   0  0  0  0  0  0  0  0  0  0  0  0
    2.2437   -1.4648   -0.3084 C   0  0  0  0  0  0  0  0  0  0  0  0
   -1.4591   -1.4576   -0.7506 H   0  0  0  0  0  0  0  0  0  0  0  0
   -1.6515   -1.6641    0.9917 H   0  0  0  0  0  0  0  0  0  0  0  0
   -3.0280   -1.9129   -0.0836 H   0  0  0  0  0  0  0  0  0  0  0  0
   -2.9839    0.5025   -0.7019 H   0  0  0  0  0  0  0  0  0  0  0  0
   -3.2475    0.2648    1.0256 H   0  0  0  0  0  0  0  0  0  0  0  0
   -1.6894    2.0697    0.7554 H   0  0  0  0  0  0  0  0  0  0  0  0
   -0.8085    0.7013    1.4357 H   0  0  0  0  0  0  0  0  0  0  0  0
   -0.8078    1.3290   -1.5509 H   0  0  0  0  0  0  0  0  0  0  0  0
    0.3740    2.0132   -0.3891 H   0  0  0  0  0  0  0  0  0  0  0  0
    2.6855   -1.3955   -1.2994 H   0  0  0  0  0  0  0  0  0  0  0  0
    1.5224   -2.2765   -0.3149 H   0  0  0  0  0  0  0  0  0  0  0  0
    3.0199   -1.6451    0.4277 H   0  0  0  0  0  0  0  0  0  0  0  0
  1  2  1  0  0  0  0
  2  3  1  0  0  0  0
  3  4  1  0  0  0  0
  4  5  1  0  0  0  0
  5  6  1  0  0  0  0
  6  7  2  0  0  0  0
  6  8  1  0  0  0  0
  1  9  1  0  0  0  0
  1 10  1  0  0  0  0
  1 11  1  0  0  0  0
  2 12  1  0  0  0  0
  2 13  1  0  0  0  0
  3 14  1  0  0  0  0
  3 15  1  0  0  0  0
  4 16  1  0  0  0  0
  4 17  1  0  0  0  0
  8 18  1  0  0  0  0
  8 19  1  0  0  0  0
  8 20  1  0  0  0  0
M  END
