 xtb: 6.7.1 (edcfbbe)
          04112516153D

 26 25  0     0  0            999 V2000
    0.5736    0.2344   -1.4771 C   0  0  0  0  0  0  0  0  0  0  0  0
    1.4422   -0.4740   -0.4546 C   0  0  0  0  0  0  0  0  0  0  0  0
    2.1510   -1.6709   -1.0805 C   0  0  0  0  0  0  0  0  0  0  0  0
    0.8504   -0.8557    0.8581 C   0  0  0  0  0  0  0  0  0  0  0  0
   -0.1742   -0.5120    1.5139 N   0  0  0  0  0  0  0  0  0  0  0  0
   -1.1420    0.3467    0.9100 O   0  0  0  0  0  0  0  0  0  0  0  0
   -2.0825   -0.2695    0.1362 C   0  0  0  0  0  0  0  0  0  0  0  0
   -1.9850   -1.4177   -0.2546 O   0  0  0  0  0  0  0  0  0  0  0  0
   -3.0699    0.5841   -0.1332 N   0  0  0  0  0  0  0  0  0  0  0  0
   -4.2043    0.2378   -0.9605 C   0  0  0  0  0  0  0  0  0  0  0  0
    2.7985    0.6630    0.1597 S   0  0  0  0  0  0  0  0  0  0  0  0
    1.8934    2.1226    0.7473 C   0  0  0  0  0  0  0  0  0  0  0  0
   -0.2117   -0.4418   -1.8130 H   0  0  0  0  0  0  0  0  0  0  0  0
    0.1107    1.1299   -1.0707 H   0  0  0  0  0  0  0  0  0  0  0  0
    1.1841    0.5128   -2.3332 H   0  0  0  0  0  0  0  0  0  0  0  0
    2.7010   -1.3541   -1.9626 H   0  0  0  0  0  0  0  0  0  0  0  0
    1.4122   -2.4159   -1.3687 H   0  0  0  0  0  0  0  0  0  0  0  0
    2.8505   -2.1170   -0.3780 H   0  0  0  0  0  0  0  0  0  0  0  0
    1.4880   -1.5005    1.4534 H   0  0  0  0  0  0  0  0  0  0  0  0
   -3.0315    1.5032    0.2806 H   0  0  0  0  0  0  0  0  0  0  0  0
   -4.2501    0.8954   -1.8276 H   0  0  0  0  0  0  0  0  0  0  0  0
   -5.1266    0.3222   -0.3876 H   0  0  0  0  0  0  0  0  0  0  0  0
   -4.0762   -0.7912   -1.2901 H   0  0  0  0  0  0  0  0  0  0  0  0
    1.0395    1.8100    1.3413 H   0  0  0  0  0  0  0  0  0  0  0  0
    1.5863    2.7318   -0.0968 H   0  0  0  0  0  0  0  0  0  0  0  0
    2.5936    2.6707    1.3685 H   0  0  0  0  0  0  0  0  0  0  0  0
  1  2  1  0  0  0  0
  2  3  1  0  0  0  0
  2  4  1  0  0  0  0
  4  5  2  0  0  0  0
  5  6  1  0  0  0  0
  6  7  1  0  0  0  0
  7  8  2  0  0  0  0
  7  9  4  0  0  0  0
  9 10  1  0  0  0  0
  2 11  1  0  0  0  0
 11 12  1  0  0  0  0
  1 13  1  0  0  0  0
  1 14  1  0  0  0  0
  1 15  1  0  0  0  0
  3 16  1  0  0  0  0
  3 17  1  0  0  0  0
  3 18  1  0  0  0  0
  4 19  1  0  0  0  0
  9 20  1  0  0  0  0
 10 21  1  0  0  0  0
 10 22  1  0  0  0  0
 10 23  1  0  0  0  0
 12 24  1  0  0  0  0
 12 25  1  0  0  0  0
 12 26  1  0  0  0  0
M  END
