 xtb: 6.7.1 (edcfbbe)
          04112514133D

 23 22  0     0  0            999 V2000
    2.2724    0.1723    1.1111 C   0  0  0  0  0  0  0  0  0  0  0  0
    2.1893   -0.1862   -0.3689 C   0  0  0  0  0  0  0  0  0  0  0  0
    0.9166   -0.9341   -0.7811 C   0  0  0  0  0  0  0  0  0  0  0  0
   -0.3186   -0.0599   -1.0240 C   0  0  0  0  0  0  0  0  0  0  0  0
   -1.1015    0.3989    0.2124 C   0  0  0  0  0  0  0  0  0  0  0  0
   -2.2053    1.3643   -0.2210 C   0  0  0  0  0  0  0  0  0  0  0  0
   -1.7147   -0.7779    0.9675 C   0  0  0  0  0  0  0  0  0  0  0  0
    1.5527    0.9402    1.3778 H   0  0  0  0  0  0  0  0  0  0  0  0
    2.0851   -0.7050    1.7265 H   0  0  0  0  0  0  0  0  0  0  0  0
    3.2657    0.5488    1.3468 H   0  0  0  0  0  0  0  0  0  0  0  0
    3.0438   -0.8250   -0.6075 H   0  0  0  0  0  0  0  0  0  0  0  0
    2.2849    0.7216   -0.9689 H   0  0  0  0  0  0  0  0  0  0  0  0
    1.1323   -1.4482   -1.7215 H   0  0  0  0  0  0  0  0  0  0  0  0
    0.6947   -1.7033   -0.0407 H   0  0  0  0  0  0  0  0  0  0  0  0
   -0.0084    0.8237   -1.5877 H   0  0  0  0  0  0  0  0  0  0  0  0
   -1.0104   -0.6208   -1.6591 H   0  0  0  0  0  0  0  0  0  0  0  0
   -0.4315    0.9347    0.8891 H   0  0  0  0  0  0  0  0  0  0  0  0
   -2.7653    1.7168    0.6421 H   0  0  0  0  0  0  0  0  0  0  0  0
   -1.7842    2.2274   -0.7319 H   0  0  0  0  0  0  0  0  0  0  0  0
   -2.8969    0.8685   -0.8993 H   0  0  0  0  0  0  0  0  0  0  0  0
   -2.3137   -0.4182    1.8010 H   0  0  0  0  0  0  0  0  0  0  0  0
   -0.9464   -1.4346    1.3657 H   0  0  0  0  0  0  0  0  0  0  0  0
   -2.3570   -1.3573    0.3076 H   0  0  0  0  0  0  0  0  0  0  0  0
  1  2  1  0  0  0  0
  2  3  1  0  0  0  0
  3  4  1  0  0  0  0
  4  5  1  0  0  0  0
  5  6  1  0  0  0  0
  5  7  1  0  0  0  0
  1  8  1  0  0  0  0
  1  9  1  0  0  0  0
  1 10  1  0  0  0  0
  2 11  1  0  0  0  0
  2 12  1  0  0  0  0
  3 13  1  0  0  0  0
  3 14  1  0  0  0  0
  4 15  1  0  0  0  0
  4 16  1  0  0  0  0
  5 17  1  0  0  0  0
  6 18  1  0  0  0  0
  6 19  1  0  0  0  0
  6 20  1  0  0  0  0
  7 21  1  0  0  0  0
  7 22  1  0  0  0  0
  7 23  1  0  0  0  0
M  END
