 xtb: 6.7.1 (edcfbbe)
          04112516153D

 26 25  0     0  0            999 V2000
    1.5837   -1.0542   -1.7211 C   0  0  0  0  0  0  0  0  0  0  0  0
    1.8924   -0.6535   -0.2780 C   0  0  0  0  0  0  0  0  0  0  0  0
    3.2498   -1.1952    0.1496 C   0  0  0  0  0  0  0  0  0  0  0  0
    0.8193   -1.0871    0.6644 C   0  0  0  0  0  0  0  0  0  0  0  0
   -0.4254   -0.8666    0.6595 N   0  0  0  0  0  0  0  0  0  0  0  0
   -0.9362   -0.0963   -0.4050 O   0  0  0  0  0  0  0  0  0  0  0  0
   -2.2816    0.1603   -0.3424 C   0  0  0  0  0  0  0  0  0  0  0  0
   -2.7590    0.8067   -1.2568 O   0  0  0  0  0  0  0  0  0  0  0  0
   -2.9244   -0.3229    0.7126 N   0  0  0  0  0  0  0  0  0  0  0  0
   -4.3431   -0.1459    0.9206 C   0  0  0  0  0  0  0  0  0  0  0  0
    1.9137    1.2170   -0.2759 S   0  0  0  0  0  0  0  0  0  0  0  0
    2.2298    1.6015    1.4761 C   0  0  0  0  0  0  0  0  0  0  0  0
    1.5105   -2.1369   -1.7962 H   0  0  0  0  0  0  0  0  0  0  0  0
    0.6479   -0.6116   -2.0545 H   0  0  0  0  0  0  0  0  0  0  0  0
    2.3805   -0.7038   -2.3720 H   0  0  0  0  0  0  0  0  0  0  0  0
    3.4594   -0.9630    1.1902 H   0  0  0  0  0  0  0  0  0  0  0  0
    4.0299   -0.7610   -0.4704 H   0  0  0  0  0  0  0  0  0  0  0  0
    3.2657   -2.2756    0.0250 H   0  0  0  0  0  0  0  0  0  0  0  0
    1.1234   -1.6710    1.5250 H   0  0  0  0  0  0  0  0  0  0  0  0
   -2.3873   -0.8551    1.3856 H   0  0  0  0  0  0  0  0  0  0  0  0
   -4.7350    0.4396    0.0913 H   0  0  0  0  0  0  0  0  0  0  0  0
   -4.5189    0.3838    1.8557 H   0  0  0  0  0  0  0  0  0  0  0  0
   -4.8399   -1.1146    0.9497 H   0  0  0  0  0  0  0  0  0  0  0  0
    3.2114    1.2435    1.7660 H   0  0  0  0  0  0  0  0  0  0  0  0
    1.4487    1.1727    2.0955 H   0  0  0  0  0  0  0  0  0  0  0  0
    2.1990    2.6843    1.5378 H   0  0  0  0  0  0  0  0  0  0  0  0
  1  2  1  0  0  0  0
  2  3  1  0  0  0  0
  2  4  1  0  0  0  0
  4  5  2  0  0  0  0
  5  6  1  0  0  0  0
  6  7  1  0  0  0  0
  7  8  2  0  0  0  0
  7  9  4  0  0  0  0
  9 10  1  0  0  0  0
  2 11  1  0  0  0  0
 11 12  1  0  0  0  0
  1 13  1  0  0  0  0
  1 14  1  0  0  0  0
  1 15  1  0  0  0  0
  3 16  1  0  0  0  0
  3 17  1  0  0  0  0
  3 18  1  0  0  0  0
  4 19  1  0  0  0  0
  9 20  1  0  0  0  0
 10 21  1  0  0  0  0
 10 22  1  0  0  0  0
 10 23  1  0  0  0  0
 12 24  1  0  0  0  0
 12 25  1  0  0  0  0
 12 26  1  0  0  0  0
M  END
