 xtb: 6.7.1 (edcfbbe)
          04112514483D

 18 17  0     0  0            999 V2000
    2.8459    0.4367    0.1249 C   0  0  0  0  0  0  0  0  0  0  0  0
    1.4658    0.1848   -0.4717 C   0  0  0  0  0  0  0  0  0  0  0  0
    0.5583   -0.5546    0.5092 C   0  0  0  0  0  0  0  0  0  0  0  0
   -0.8052   -0.9309   -0.0876 C   0  0  0  0  0  0  0  0  0  0  0  0
   -1.6478    0.2684   -0.3861 C   0  0  0  0  0  0  0  0  0  0  0  0
   -2.7451    0.5884    0.2742 C   0  0  0  0  0  0  0  0  0  0  0  0
    2.7653    1.0365    1.0288 H   0  0  0  0  0  0  0  0  0  0  0  0
    3.4782    0.9660   -0.5837 H   0  0  0  0  0  0  0  0  0  0  0  0
    3.3287   -0.5039    0.3809 H   0  0  0  0  0  0  0  0  0  0  0  0
    1.0144    1.1408   -0.7418 H   0  0  0  0  0  0  0  0  0  0  0  0
    1.5686   -0.4073   -1.3842 H   0  0  0  0  0  0  0  0  0  0  0  0
    1.0597   -1.4711    0.8294 H   0  0  0  0  0  0  0  0  0  0  0  0
    0.4003    0.0649    1.3950 H   0  0  0  0  0  0  0  0  0  0  0  0
   -0.6418   -1.4952   -1.0095 H   0  0  0  0  0  0  0  0  0  0  0  0
   -1.3328   -1.5742    0.6193 H   0  0  0  0  0  0  0  0  0  0  0  0
   -1.3020    0.8970   -1.1957 H   0  0  0  0  0  0  0  0  0  0  0  0
   -3.3224    1.4655    0.0358 H   0  0  0  0  0  0  0  0  0  0  0  0
   -3.1157   -0.0204    1.0831 H   0  0  0  0  0  0  0  0  0  0  0  0
  1  2  1  0  0  0  0
  2  3  1  0  0  0  0
  3  4  1  0  0  0  0
  4  5  1  0  0  0  0
  5  6  2  0  0  0  0
  1  7  1  0  0  0  0
  1  8  1  0  0  0  0
  1  9  1  0  0  0  0
  2 10  1  0  0  0  0
  2 11  1  0  0  0  0
  3 12  1  0  0  0  0
  3 13  1  0  0  0  0
  4 14  1  0  0  0  0
  4 15  1  0  0  0  0
  5 16  1  0  0  0  0
  6 17  1  0  0  0  0
  6 18  1  0  0  0  0
M  END
