 xtb: 6.7.1 (edcfbbe)
          04112516273D

 19 18  0     0  0            999 V2000
   -3.1242   -0.8141   -0.2039 C   0  0  0  0  0  0  0  0  0  0  0  0
   -2.1419    0.1906    0.3863 C   0  0  0  0  0  0  0  0  0  0  0  0
   -0.7691    0.0976   -0.2754 C   0  0  0  0  0  0  0  0  0  0  0  0
    0.2205    1.0999    0.3133 C   0  0  0  0  0  0  0  0  0  0  0  0
    1.6054    0.9871   -0.3350 C   0  0  0  0  0  0  0  0  0  0  0  0
    2.2251   -0.2926   -0.0563 C   0  0  0  0  0  0  0  0  0  0  0  0
    2.7239   -1.3522    0.1915 C   0  0  0  0  0  0  0  0  0  0  0  0
   -4.0939   -0.7318    0.2809 H   0  0  0  0  0  0  0  0  0  0  0  0
   -2.7564   -1.8288   -0.0687 H   0  0  0  0  0  0  0  0  0  0  0  0
   -3.2558   -0.6376   -1.2691 H   0  0  0  0  0  0  0  0  0  0  0  0
   -2.5364    1.2016    0.2593 H   0  0  0  0  0  0  0  0  0  0  0  0
   -2.0374    0.0087    1.4584 H   0  0  0  0  0  0  0  0  0  0  0  0
   -0.8741    0.2789   -1.3482 H   0  0  0  0  0  0  0  0  0  0  0  0
   -0.3718   -0.9124   -0.1481 H   0  0  0  0  0  0  0  0  0  0  0  0
    0.3119    0.9295    1.3885 H   0  0  0  0  0  0  0  0  0  0  0  0
   -0.1565    2.1141    0.1640 H   0  0  0  0  0  0  0  0  0  0  0  0
    2.2563    1.7784    0.0459 H   0  0  0  0  0  0  0  0  0  0  0  0
    1.5166    1.1072   -1.4182 H   0  0  0  0  0  0  0  0  0  0  0  0
    3.1683   -2.2787    0.4008 H   0  0  0  0  0  0  0  0  0  0  0  0
  1  2  1  0  0  0  0
  2  3  1  0  0  0  0
  3  4  1  0  0  0  0
  4  5  1  0  0  0  0
  5  6  1  0  0  0  0
  6  7  3  0  0  0  0
  1  8  1  0  0  0  0
  1  9  1  0  0  0  0
  1 10  1  0  0  0  0
  2 11  1  0  0  0  0
  2 12  1  0  0  0  0
  3 13  1  0  0  0  0
  3 14  1  0  0  0  0
  4 15  1  0  0  0  0
  4 16  1  0  0  0  0
  5 17  1  0  0  0  0
  5 18  1  0  0  0  0
  7 19  1  0  0  0  0
M  END
