 xtb: 6.7.1 (edcfbbe)
          04112516093D

 19 18  0     0  0            999 V2000
    2.9566    0.2659   -0.6654 C   0  0  0  0  0  0  0  0  0  0  0  0
    1.6418   -0.3228   -0.1676 C   0  0  0  0  0  0  0  0  0  0  0  0
    0.8637    0.6778    0.6849 C   0  0  0  0  0  0  0  0  0  0  0  0
   -0.4659    0.0954    1.1758 C   0  0  0  0  0  0  0  0  0  0  0  0
   -1.4145   -0.2412    0.0522 C   0  0  0  0  0  0  0  0  0  0  0  0
   -1.8638   -1.3629   -0.0921 O   0  0  0  0  0  0  0  0  0  0  0  0
   -1.7771    0.8865   -0.8692 C   0  0  0  0  0  0  0  0  0  0  0  0
    3.5842    0.5559    0.1738 H   0  0  0  0  0  0  0  0  0  0  0  0
    3.4979   -0.4622   -1.2641 H   0  0  0  0  0  0  0  0  0  0  0  0
    2.7740    1.1462   -1.2774 H   0  0  0  0  0  0  0  0  0  0  0  0
    1.8444   -1.2185    0.4238 H   0  0  0  0  0  0  0  0  0  0  0  0
    1.0315   -0.6317   -1.0202 H   0  0  0  0  0  0  0  0  0  0  0  0
    0.6835    1.5865    0.1103 H   0  0  0  0  0  0  0  0  0  0  0  0
    1.4655    0.9476    1.5545 H   0  0  0  0  0  0  0  0  0  0  0  0
   -0.2835   -0.8120    1.7552 H   0  0  0  0  0  0  0  0  0  0  0  0
   -0.9620    0.8244    1.8195 H   0  0  0  0  0  0  0  0  0  0  0  0
   -1.8986    1.8141   -0.3192 H   0  0  0  0  0  0  0  0  0  0  0  0
   -0.9721    1.0171   -1.5902 H   0  0  0  0  0  0  0  0  0  0  0  0
   -2.6853    0.6422   -1.4136 H   0  0  0  0  0  0  0  0  0  0  0  0
  1  2  1  0  0  0  0
  2  3  1  0  0  0  0
  3  4  1  0  0  0  0
  4  5  1  0  0  0  0
  5  6  2  0  0  0  0
  5  7  1  0  0  0  0
  1  8  1  0  0  0  0
  1  9  1  0  0  0  0
  1 10  1  0  0  0  0
  2 11  1  0  0  0  0
  2 12  1  0  0  0  0
  3 13  1  0  0  0  0
  3 14  1  0  0  0  0
  4 15  1  0  0  0  0
  4 16  1  0  0  0  0
  7 17  1  0  0  0  0
  7 18  1  0  0  0  0
  7 19  1  0  0  0  0
M  END
