 xtb: 6.7.1 (edcfbbe)
          04112516113D

 20 19  0     0  0            999 V2000
    3.1598   -1.4242   -0.3796 C   0  0  0  0  0  0  0  0  0  0  0  0
    2.3956   -0.1619   -0.1354 C   0  0  0  0  0  0  0  0  0  0  0  0
    2.7735    0.7718    0.5387 O   0  0  0  0  0  0  0  0  0  0  0  0
    1.2244   -0.1684   -0.7783 O   0  0  0  0  0  0  0  0  0  0  0  0
    0.3896    0.9825   -0.6566 C   0  0  0  0  0  0  0  0  0  0  0  0
   -0.3890    0.9799    0.6581 C   0  0  0  0  0  0  0  0  0  0  0  0
   -1.2235   -0.1716    0.7760 O   0  0  0  0  0  0  0  0  0  0  0  0
   -2.3962   -0.1621    0.1355 C   0  0  0  0  0  0  0  0  0  0  0  0
   -2.7746    0.7742   -0.5347 O   0  0  0  0  0  0  0  0  0  0  0  0
   -3.1600   -1.4253    0.3763 C   0  0  0  0  0  0  0  0  0  0  0  0
    3.5880   -1.3813   -1.3788 H   0  0  0  0  0  0  0  0  0  0  0  0
    2.4865   -2.2744   -0.3347 H   0  0  0  0  0  0  0  0  0  0  0  0
    3.9577   -1.5160    0.3498 H   0  0  0  0  0  0  0  0  0  0  0  0
    1.0029    1.8871   -0.6983 H   0  0  0  0  0  0  0  0  0  0  0  0
   -0.2929    0.9375   -1.5062 H   0  0  0  0  0  0  0  0  0  0  0  0
   -1.0027    1.8841    0.7035 H   0  0  0  0  0  0  0  0  0  0  0  0
    0.2937    0.9318    1.5073 H   0  0  0  0  0  0  0  0  0  0  0  0
   -3.9880   -1.4912   -0.3216 H   0  0  0  0  0  0  0  0  0  0  0  0
   -3.5429   -1.4103    1.3943 H   0  0  0  0  0  0  0  0  0  0  0  0
   -2.4956   -2.2781    0.2772 H   0  0  0  0  0  0  0  0  0  0  0  0
  1  2  1  0  0  0  0
  2  3  2  0  0  0  0
  2  4  1  0  0  0  0
  4  5  1  0  0  0  0
  5  6  1  0  0  0  0
  6  7  1  0  0  0  0
  7  8  1  0  0  0  0
  8  9  2  0  0  0  0
  8 10  1  0  0  0  0
  1 11  1  0  0  0  0
  1 12  1  0  0  0  0
  1 13  1  0  0  0  0
  5 14  1  0  0  0  0
  5 15  1  0  0  0  0
  6 16  1  0  0  0  0
  6 17  1  0  0  0  0
 10 18  1  0  0  0  0
 10 19  1  0  0  0  0
 10 20  1  0  0  0  0
M  END
