 xtb: 6.7.1 (edcfbbe)
          04112516193D

 23 23  0     0  0            999 V2000
   -4.1008   -0.3214    0.0010 C   0  0  0  0  0  0  0  0  0  0  0  0
   -3.0580    0.6387   -0.0002 O   0  0  0  0  0  0  0  0  0  0  0  0
   -1.7665    0.2008   -0.0003 C   0  0  0  0  0  0  0  0  0  0  0  0
   -1.3687   -1.1155    0.0008 C   0  0  0  0  0  0  0  0  0  0  0  0
   -0.0049   -1.4452    0.0002 C   0  0  0  0  0  0  0  0  0  0  0  0
    0.9315   -0.4095   -0.0011 C   0  0  0  0  0  0  0  0  0  0  0  0
    0.5515    0.9414   -0.0021 C   0  0  0  0  0  0  0  0  0  0  0  0
   -0.8155    1.2475   -0.0022 C   0  0  0  0  0  0  0  0  0  0  0  0
   -1.2593    2.5223   -0.0044 O   0  0  0  0  0  0  0  0  0  0  0  0
    1.5782    1.8224   -0.0037 O   0  0  0  0  0  0  0  0  0  0  0  0
    1.3489    3.2253    0.0057 C   0  0  0  0  0  0  0  0  0  0  0  0
    2.6252   -0.7370   -0.0016 Cl  0  0  0  0  0  0  0  0  0  0  0  0
    0.3506   -2.8546    0.0010 C   0  0  0  0  0  0  0  0  0  0  0  0
    1.4642   -3.3407    0.0005 O   0  0  0  0  0  0  0  0  0  0  0  0
   -4.0577   -0.9465   -0.8929 H   0  0  0  0  0  0  0  0  0  0  0  0
   -5.0201    0.2590    0.0008 H   0  0  0  0  0  0  0  0  0  0  0  0
   -4.0571   -0.9448    0.8961 H   0  0  0  0  0  0  0  0  0  0  0  0
   -2.0893   -1.9154    0.0020 H   0  0  0  0  0  0  0  0  0  0  0  0
   -2.2342    2.5221   -0.0036 H   0  0  0  0  0  0  0  0  0  0  0  0
    0.8075    3.5323    0.9005 H   0  0  0  0  0  0  0  0  0  0  0  0
    0.8054    3.5441   -0.8838 H   0  0  0  0  0  0  0  0  0  0  0  0
    2.3456    3.6611    0.0074 H   0  0  0  0  0  0  0  0  0  0  0  0
   -0.5317   -3.5210    0.0022 H   0  0  0  0  0  0  0  0  0  0  0  0
  1  2  1  0  0  0  0
  2  3  1  0  0  0  0
  3  4  4  0  0  0  0
  4  5  4  0  0  0  0
  5  6  4  0  0  0  0
  6  7  4  0  0  0  0
  3  8  4  0  0  0  0
  7  8  4  0  0  0  0
  8  9  1  0  0  0  0
  7 10  1  0  0  0  0
 10 11  1  0  0  0  0
  6 12  1  0  0  0  0
  5 13  1  0  0  0  0
 13 14  2  0  0  0  0
  1 15  1  0  0  0  0
  1 16  1  0  0  0  0
  1 17  1  0  0  0  0
  4 18  1  0  0  0  0
  9 19  1  0  0  0  0
 11 20  1  0  0  0  0
 11 21  1  0  0  0  0
 11 22  1  0  0  0  0
 13 23  1  0  0  0  0
M  END
