 xtb: 6.7.1 (edcfbbe)
          04112517153D

 20 19  0     0  0            999 V2000
   -3.9247    0.0751   -0.3036 C   0  0  0  0  0  0  0  0  0  0  0  0
   -2.6985   -0.2628    0.5357 C   0  0  0  0  0  0  0  0  0  0  0  0
   -1.4046    0.0905   -0.1932 C   0  0  0  0  0  0  0  0  0  0  0  0
   -0.1731   -0.2521    0.6401 C   0  0  0  0  0  0  0  0  0  0  0  0
    1.1085    0.1243   -0.0538 C   0  0  0  0  0  0  0  0  0  0  0  0
    1.1963    0.7514   -1.0873 O   0  0  0  0  0  0  0  0  0  0  0  0
    2.1701   -0.3184    0.6175 O   0  0  0  0  0  0  0  0  0  0  0  0
    3.4614   -0.0215    0.0790 C   0  0  0  0  0  0  0  0  0  0  0  0
   -3.9072   -0.4749   -1.2416 H   0  0  0  0  0  0  0  0  0  0  0  0
   -4.8358   -0.1826    0.2302 H   0  0  0  0  0  0  0  0  0  0  0  0
   -3.9478    1.1380   -0.5325 H   0  0  0  0  0  0  0  0  0  0  0  0
   -2.7427    0.2851    1.4789 H   0  0  0  0  0  0  0  0  0  0  0  0
   -2.7015   -1.3294    0.7687 H   0  0  0  0  0  0  0  0  0  0  0  0
   -1.3898    1.1566   -0.4281 H   0  0  0  0  0  0  0  0  0  0  0  0
   -1.3562   -0.4479   -1.1418 H   0  0  0  0  0  0  0  0  0  0  0  0
   -0.1339   -1.3190    0.8657 H   0  0  0  0  0  0  0  0  0  0  0  0
   -0.1964    0.2797    1.5940 H   0  0  0  0  0  0  0  0  0  0  0  0
    4.1734   -0.4765    0.7601 H   0  0  0  0  0  0  0  0  0  0  0  0
    3.6040    1.0584    0.0255 H   0  0  0  0  0  0  0  0  0  0  0  0
    3.5529   -0.4413   -0.9234 H   0  0  0  0  0  0  0  0  0  0  0  0
  1  2  1  0  0  0  0
  2  3  1  0  0  0  0
  3  4  1  0  0  0  0
  4  5  1  0  0  0  0
  5  6  2  0  0  0  0
  5  7  1  0  0  0  0
  7  8  1  0  0  0  0
  1  9  1  0  0  0  0
  1 10  1  0  0  0  0
  1 11  1  0  0  0  0
  2 12  1  0  0  0  0
  2 13  1  0  0  0  0
  3 14  1  0  0  0  0
  3 15  1  0  0  0  0
  4 16  1  0  0  0  0
  4 17  1  0  0  0  0
  8 18  1  0  0  0  0
  8 19  1  0  0  0  0
  8 20  1  0  0  0  0
M  END
