 xtb: 6.7.1 (edcfbbe)
          04112516293D

 20 19  0     0  0            999 V2000
   -2.8366   -0.5061    1.0205 C   0  0  0  0  0  0  0  0  0  0  0  0
   -2.3222   -0.5289   -0.4146 C   0  0  0  0  0  0  0  0  0  0  0  0
   -1.6465    0.7786   -0.8328 C   0  0  0  0  0  0  0  0  0  0  0  0
   -0.3170    1.0194   -0.1319 C   0  0  0  0  0  0  0  0  0  0  0  0
    0.6095    0.0022   -0.5413 O   0  0  0  0  0  0  0  0  0  0  0  0
    1.7452   -0.1099    0.1330 C   0  0  0  0  0  0  0  0  0  0  0  0
    2.0295    0.6012    1.0769 O   0  0  0  0  0  0  0  0  0  0  0  0
    2.6152   -1.2025   -0.4116 C   0  0  0  0  0  0  0  0  0  0  0  0
   -3.3647   -1.4296    1.2438 H   0  0  0  0  0  0  0  0  0  0  0  0
   -2.0197   -0.4068    1.7312 H   0  0  0  0  0  0  0  0  0  0  0  0
   -3.5218    0.3258    1.1662 H   0  0  0  0  0  0  0  0  0  0  0  0
   -1.6132   -1.3492   -0.5381 H   0  0  0  0  0  0  0  0  0  0  0  0
   -3.1622   -0.7099   -1.0873 H   0  0  0  0  0  0  0  0  0  0  0  0
   -1.4621    0.7582   -1.9076 H   0  0  0  0  0  0  0  0  0  0  0  0
   -2.3012    1.6213   -0.6096 H   0  0  0  0  0  0  0  0  0  0  0  0
    0.1008    1.9936   -0.4068 H   0  0  0  0  0  0  0  0  0  0  0  0
   -0.4111    0.9884    0.9577 H   0  0  0  0  0  0  0  0  0  0  0  0
    2.9183   -1.8569    0.4011 H   0  0  0  0  0  0  0  0  0  0  0  0
    3.5131   -0.7560   -0.8323 H   0  0  0  0  0  0  0  0  0  0  0  0
    2.0811   -1.7561   -1.1759 H   0  0  0  0  0  0  0  0  0  0  0  0
  1  2  1  0  0  0  0
  2  3  1  0  0  0  0
  3  4  1  0  0  0  0
  4  5  1  0  0  0  0
  5  6  1  0  0  0  0
  6  7  2  0  0  0  0
  6  8  1  0  0  0  0
  1  9  1  0  0  0  0
  1 10  1  0  0  0  0
  1 11  1  0  0  0  0
  2 12  1  0  0  0  0
  2 13  1  0  0  0  0
  3 14  1  0  0  0  0
  3 15  1  0  0  0  0
  4 16  1  0  0  0  0
  4 17  1  0  0  0  0
  8 18  1  0  0  0  0
  8 19  1  0  0  0  0
  8 20  1  0  0  0  0
M  END
