 xtb: 6.7.1 (edcfbbe)
          04112516423D

 26 25  0     0  0            999 V2000
    1.5890   -0.4676   -1.7200 C   0  0  0  0  0  0  0  0  0  0  0  0
    1.8229   -0.5696   -0.2148 C   0  0  0  0  0  0  0  0  0  0  0  0
    3.1579   -1.2323    0.0986 C   0  0  0  0  0  0  0  0  0  0  0  0
    0.7135   -1.3088    0.4693 C   0  0  0  0  0  0  0  0  0  0  0  0
   -0.5332   -1.1111    0.4588 N   0  0  0  0  0  0  0  0  0  0  0  0
   -1.0032   -0.0337   -0.3187 O   0  0  0  0  0  0  0  0  0  0  0  0
   -2.3544    0.1895   -0.2496 C   0  0  0  0  0  0  0  0  0  0  0  0
   -2.7952    1.0917   -0.9385 O   0  0  0  0  0  0  0  0  0  0  0  0
   -3.0426   -0.6049    0.5589 N   0  0  0  0  0  0  0  0  0  0  0  0
   -4.4713   -0.4947    0.7435 C   0  0  0  0  0  0  0  0  0  0  0  0
    1.7393    1.1332    0.5684 S   0  0  0  0  0  0  0  0  0  0  0  0
    3.2424    1.9330   -0.0675 C   0  0  0  0  0  0  0  0  0  0  0  0
    1.4913   -1.4663   -2.1415 H   0  0  0  0  0  0  0  0  0  0  0  0
    0.6819    0.0931   -1.9334 H   0  0  0  0  0  0  0  0  0  0  0  0
    2.4294    0.0277   -2.1993 H   0  0  0  0  0  0  0  0  0  0  0  0
    3.9667   -0.7343   -0.4283 H   0  0  0  0  0  0  0  0  0  0  0  0
    3.1309   -2.2705   -0.2251 H   0  0  0  0  0  0  0  0  0  0  0  0
    3.3580   -1.1988    1.1669 H   0  0  0  0  0  0  0  0  0  0  0  0
    0.9903   -2.1434    1.1004 H   0  0  0  0  0  0  0  0  0  0  0  0
   -2.5294   -1.3139    1.0674 H   0  0  0  0  0  0  0  0  0  0  0  0
   -4.6968   -0.2720    1.7853 H   0  0  0  0  0  0  0  0  0  0  0  0
   -4.9567   -1.4257    0.4549 H   0  0  0  0  0  0  0  0  0  0  0  0
   -4.8313    0.3152    0.1123 H   0  0  0  0  0  0  0  0  0  0  0  0
    3.2475    1.9050   -1.1517 H   0  0  0  0  0  0  0  0  0  0  0  0
    4.1238    1.4612    0.3522 H   0  0  0  0  0  0  0  0  0  0  0  0
    3.1746    2.9611    0.2727 H   0  0  0  0  0  0  0  0  0  0  0  0
  1  2  1  0  0  0  0
  2  3  1  0  0  0  0
  2  4  1  0  0  0  0
  4  5  2  0  0  0  0
  5  6  1  0  0  0  0
  6  7  1  0  0  0  0
  7  8  2  0  0  0  0
  7  9  4  0  0  0  0
  9 10  1  0  0  0  0
  2 11  1  0  0  0  0
 11 12  1  0  0  0  0
  1 13  1  0  0  0  0
  1 14  1  0  0  0  0
  1 15  1  0  0  0  0
  3 16  1  0  0  0  0
  3 17  1  0  0  0  0
  3 18  1  0  0  0  0
  4 19  1  0  0  0  0
  9 20  1  0  0  0  0
 10 21  1  0  0  0  0
 10 22  1  0  0  0  0
 10 23  1  0  0  0  0
 12 24  1  0  0  0  0
 12 25  1  0  0  0  0
 12 26  1  0  0  0  0
M  END
