 xtb: 6.7.1 (edcfbbe)
          04112516293D

 20 19  0     0  0            999 V2000
   -1.8405   -1.1304   -0.6388 C   0  0  0  0  0  0  0  0  0  0  0  0
   -2.4463    0.1844   -0.1599 C   0  0  0  0  0  0  0  0  0  0  0  0
   -1.6484    0.8512    0.9618 C   0  0  0  0  0  0  0  0  0  0  0  0
   -0.2290    1.2516    0.5662 C   0  0  0  0  0  0  0  0  0  0  0  0
    0.6638    0.1403    0.7383 O   0  0  0  0  0  0  0  0  0  0  0  0
    1.4972   -0.1905   -0.2366 C   0  0  0  0  0  0  0  0  0  0  0  0
    1.5762    0.4076   -1.2920 O   0  0  0  0  0  0  0  0  0  0  0  0
    2.3101   -1.3989    0.1218 C   0  0  0  0  0  0  0  0  0  0  0  0
   -1.6549   -1.7945    0.2022 H   0  0  0  0  0  0  0  0  0  0  0  0
   -2.5179   -1.6271   -1.3293 H   0  0  0  0  0  0  0  0  0  0  0  0
   -0.9008   -0.9605   -1.1601 H   0  0  0  0  0  0  0  0  0  0  0  0
   -2.5240    0.8731   -1.0039 H   0  0  0  0  0  0  0  0  0  0  0  0
   -3.4560   -0.0041    0.2097 H   0  0  0  0  0  0  0  0  0  0  0  0
   -2.1742    1.7530    1.2756 H   0  0  0  0  0  0  0  0  0  0  0  0
   -1.5816    0.1787    1.8184 H   0  0  0  0  0  0  0  0  0  0  0  0
   -0.1763    1.5900   -0.4732 H   0  0  0  0  0  0  0  0  0  0  0  0
    0.1412    2.0446    1.2218 H   0  0  0  0  0  0  0  0  0  0  0  0
    1.9088   -2.2548   -0.4170 H   0  0  0  0  0  0  0  0  0  0  0  0
    2.2516   -1.5815    1.1891 H   0  0  0  0  0  0  0  0  0  0  0  0
    3.3377   -1.2517   -0.1966 H   0  0  0  0  0  0  0  0  0  0  0  0
  1  2  1  0  0  0  0
  2  3  1  0  0  0  0
  3  4  1  0  0  0  0
  4  5  1  0  0  0  0
  5  6  1  0  0  0  0
  6  7  2  0  0  0  0
  6  8  1  0  0  0  0
  1  9  1  0  0  0  0
  1 10  1  0  0  0  0
  1 11  1  0  0  0  0
  2 12  1  0  0  0  0
  2 13  1  0  0  0  0
  3 14  1  0  0  0  0
  3 15  1  0  0  0  0
  4 16  1  0  0  0  0
  4 17  1  0  0  0  0
  8 18  1  0  0  0  0
  8 19  1  0  0  0  0
  8 20  1  0  0  0  0
M  END
