 xtb: 6.7.1 (edcfbbe)
          04112516013D

 20 19  0     0  0            999 V2000
   -3.6496   -0.7213    0.0872 C   0  0  0  0  0  0  0  0  0  0  0  0
   -2.2328   -0.4063   -0.3768 C   0  0  0  0  0  0  0  0  0  0  0  0
   -1.6076    0.7152    0.4512 C   0  0  0  0  0  0  0  0  0  0  0  0
   -0.1860    1.0289    0.0106 C   0  0  0  0  0  0  0  0  0  0  0  0
    0.6444   -0.1032    0.3086 O   0  0  0  0  0  0  0  0  0  0  0  0
    1.9114   -0.0598   -0.0805 C   0  0  0  0  0  0  0  0  0  0  0  0
    2.3923    0.8911   -0.6646 O   0  0  0  0  0  0  0  0  0  0  0  0
    2.6494   -1.3144    0.2770 C   0  0  0  0  0  0  0  0  0  0  0  0
   -4.2843    0.1568   -0.0053 H   0  0  0  0  0  0  0  0  0  0  0  0
   -4.0773   -1.5200   -0.5130 H   0  0  0  0  0  0  0  0  0  0  0  0
   -3.6486   -1.0358    1.1279 H   0  0  0  0  0  0  0  0  0  0  0  0
   -1.6112   -1.2991   -0.2907 H   0  0  0  0  0  0  0  0  0  0  0  0
   -2.2504   -0.1106   -1.4280 H   0  0  0  0  0  0  0  0  0  0  0  0
   -2.2015    1.6243    0.3527 H   0  0  0  0  0  0  0  0  0  0  0  0
   -1.5902    0.4261    1.5028 H   0  0  0  0  0  0  0  0  0  0  0  0
   -0.1304    1.2282   -1.0650 H   0  0  0  0  0  0  0  0  0  0  0  0
    0.2161    1.8996    0.5392 H   0  0  0  0  0  0  0  0  0  0  0  0
    2.0794   -1.8855    1.0014 H   0  0  0  0  0  0  0  0  0  0  0  0
    3.6313   -1.0585    0.6638 H   0  0  0  0  0  0  0  0  0  0  0  0
    2.7867   -1.9033   -0.6273 H   0  0  0  0  0  0  0  0  0  0  0  0
  1  2  1  0  0  0  0
  2  3  1  0  0  0  0
  3  4  1  0  0  0  0
  4  5  1  0  0  0  0
  5  6  1  0  0  0  0
  6  7  2  0  0  0  0
  6  8  1  0  0  0  0
  1  9  1  0  0  0  0
  1 10  1  0  0  0  0
  1 11  1  0  0  0  0
  2 12  1  0  0  0  0
  2 13  1  0  0  0  0
  3 14  1  0  0  0  0
  3 15  1  0  0  0  0
  4 16  1  0  0  0  0
  4 17  1  0  0  0  0
  8 18  1  0  0  0  0
  8 19  1  0  0  0  0
  8 20  1  0  0  0  0
M  END
