 xtb: 6.7.1 (edcfbbe)
          04112514233D

 23 22  0     0  0            999 V2000
    3.6381   -0.1348    0.2409 C   0  0  0  0  0  0  0  0  0  0  0  0
    2.1915    0.3572    0.2165 C   0  0  0  0  0  0  0  0  0  0  0  0
    1.7803    0.7035   -1.2119 C   0  0  0  0  0  0  0  0  0  0  0  0
    1.2761   -0.7089    0.8305 C   0  0  0  0  0  0  0  0  0  0  0  0
   -0.1587   -0.2491    1.0540 C   0  0  0  0  0  0  0  0  0  0  0  0
   -0.8926   -0.3533   -0.1749 O   0  0  0  0  0  0  0  0  0  0  0  0
   -2.1617    0.0296   -0.1709 C   0  0  0  0  0  0  0  0  0  0  0  0
   -2.7215    0.4581    0.8190 O   0  0  0  0  0  0  0  0  0  0  0  0
   -2.7926   -0.1179   -1.5228 C   0  0  0  0  0  0  0  0  0  0  0  0
    3.7373   -1.0444   -0.3467 H   0  0  0  0  0  0  0  0  0  0  0  0
    3.9571   -0.3452    1.2587 H   0  0  0  0  0  0  0  0  0  0  0  0
    4.3012    0.6179   -0.1776 H   0  0  0  0  0  0  0  0  0  0  0  0
    2.1226    1.2629    0.8300 H   0  0  0  0  0  0  0  0  0  0  0  0
    1.8218   -0.1825   -1.8409 H   0  0  0  0  0  0  0  0  0  0  0  0
    2.4505    1.4532   -1.6260 H   0  0  0  0  0  0  0  0  0  0  0  0
    0.7679    1.0954   -1.2416 H   0  0  0  0  0  0  0  0  0  0  0  0
    1.6810   -1.0030    1.7993 H   0  0  0  0  0  0  0  0  0  0  0  0
    1.2567   -1.5891    0.1864 H   0  0  0  0  0  0  0  0  0  0  0  0
   -0.6619   -0.8762    1.7978 H   0  0  0  0  0  0  0  0  0  0  0  0
   -0.2039    0.7880    1.4036 H   0  0  0  0  0  0  0  0  0  0  0  0
   -3.8568   -0.2985   -1.4109 H   0  0  0  0  0  0  0  0  0  0  0  0
   -2.3102   -0.9209   -2.0698 H   0  0  0  0  0  0  0  0  0  0  0  0
   -2.6549    0.8127   -2.0695 H   0  0  0  0  0  0  0  0  0  0  0  0
  1  2  1  0  0  0  0
  2  3  1  0  0  0  0
  2  4  1  0  0  0  0
  4  5  1  0  0  0  0
  5  6  1  0  0  0  0
  6  7  1  0  0  0  0
  7  8  2  0  0  0  0
  7  9  1  0  0  0  0
  1 10  1  0  0  0  0
  1 11  1  0  0  0  0
  1 12  1  0  0  0  0
  2 13  1  0  0  0  0
  3 14  1  0  0  0  0
  3 15  1  0  0  0  0
  3 16  1  0  0  0  0
  4 17  1  0  0  0  0
  4 18  1  0  0  0  0
  5 19  1  0  0  0  0
  5 20  1  0  0  0  0
  9 21  1  0  0  0  0
  9 22  1  0  0  0  0
  9 23  1  0  0  0  0
M  END
