 xtb: 6.7.1 (edcfbbe)
          04112516253D

 17 16  0     0  0            999 V2000
   -3.4505   -0.1891   -0.0307 C   0  0  0  0  0  0  0  0  0  0  0  0
   -2.1904    0.5816    0.3438 C   0  0  0  0  0  0  0  0  0  0  0  0
   -0.9281   -0.1712   -0.0682 C   0  0  0  0  0  0  0  0  0  0  0  0
    0.3361    0.5959    0.3060 C   0  0  0  0  0  0  0  0  0  0  0  0
    1.5913   -0.1263   -0.0971 C   0  0  0  0  0  0  0  0  0  0  0  0
    1.6367   -1.1945   -0.6682 O   0  0  0  0  0  0  0  0  0  0  0  0
    2.6844    0.5434    0.2446 O   0  0  0  0  0  0  0  0  0  0  0  0
   -3.4920   -0.3514   -1.1053 H   0  0  0  0  0  0  0  0  0  0  0  0
   -3.4634   -1.1592    0.4607 H   0  0  0  0  0  0  0  0  0  0  0  0
   -4.3386    0.3612    0.2694 H   0  0  0  0  0  0  0  0  0  0  0  0
   -2.1753    0.7485    1.4227 H   0  0  0  0  0  0  0  0  0  0  0  0
   -2.2043    1.5578   -0.1449 H   0  0  0  0  0  0  0  0  0  0  0  0
   -0.9073   -1.1509    0.4135 H   0  0  0  0  0  0  0  0  0  0  0  0
   -0.9350   -0.3441   -1.1463 H   0  0  0  0  0  0  0  0  0  0  0  0
    0.3848    0.7656    1.3836 H   0  0  0  0  0  0  0  0  0  0  0  0
    0.3524    1.5766   -0.1744 H   0  0  0  0  0  0  0  0  0  0  0  0
    3.5054    0.0820   -0.0143 H   0  0  0  0  0  0  0  0  0  0  0  0
  1  2  1  0  0  0  0
  2  3  1  0  0  0  0
  3  4  1  0  0  0  0
  4  5  1  0  0  0  0
  5  6  2  0  0  0  0
  5  7  1  0  0  0  0
  1  8  1  0  0  0  0
  1  9  1  0  0  0  0
  1 10  1  0  0  0  0
  2 11  1  0  0  0  0
  2 12  1  0  0  0  0
  3 13  1  0  0  0  0
  3 14  1  0  0  0  0
  4 15  1  0  0  0  0
  4 16  1  0  0  0  0
  7 17  1  0  0  0  0
M  END
