 xtb: 6.7.1 (edcfbbe)
          04112516113D

 20 19  0     0  0            999 V2000
    3.1007   -1.4483   -0.4741 C   0  0  0  0  0  0  0  0  0  0  0  0
    2.3218   -0.1716   -0.5002 C   0  0  0  0  0  0  0  0  0  0  0  0
    2.5230    0.7600   -1.2496 O   0  0  0  0  0  0  0  0  0  0  0  0
    1.3648   -0.1616    0.4313 O   0  0  0  0  0  0  0  0  0  0  0  0
    0.5455    1.0022    0.5372 C   0  0  0  0  0  0  0  0  0  0  0  0
   -0.5496    1.0197   -0.5284 C   0  0  0  0  0  0  0  0  0  0  0  0
   -1.3817   -0.1369   -0.4491 O   0  0  0  0  0  0  0  0  0  0  0  0
   -2.3270   -0.1648    0.4943 C   0  0  0  0  0  0  0  0  0  0  0  0
   -2.5221    0.7539    1.2608 O   0  0  0  0  0  0  0  0  0  0  0  0
   -3.0830   -1.4550    0.4737 C   0  0  0  0  0  0  0  0  0  0  0  0
    3.2343   -1.8105   -1.4894 H   0  0  0  0  0  0  0  0  0  0  0  0
    2.5891   -2.1819    0.1389 H   0  0  0  0  0  0  0  0  0  0  0  0
    4.0856   -1.2445   -0.0596 H   0  0  0  0  0  0  0  0  0  0  0  0
    0.1085    0.9593    1.5355 H   0  0  0  0  0  0  0  0  0  0  0  0
    1.1622    1.8978    0.4208 H   0  0  0  0  0  0  0  0  0  0  0  0
   -0.1127    0.9938   -1.5273 H   0  0  0  0  0  0  0  0  0  0  0  0
   -1.1567    1.9192   -0.3927 H   0  0  0  0  0  0  0  0  0  0  0  0
   -3.0666   -1.8780   -0.5250 H   0  0  0  0  0  0  0  0  0  0  0  0
   -4.0986   -1.2895    0.8186 H   0  0  0  0  0  0  0  0  0  0  0  0
   -2.5938   -2.1470    1.1565 H   0  0  0  0  0  0  0  0  0  0  0  0
  1  2  1  0  0  0  0
  2  3  2  0  0  0  0
  2  4  1  0  0  0  0
  4  5  1  0  0  0  0
  5  6  1  0  0  0  0
  6  7  1  0  0  0  0
  7  8  1  0  0  0  0
  8  9  2  0  0  0  0
  8 10  1  0  0  0  0
  1 11  1  0  0  0  0
  1 12  1  0  0  0  0
  1 13  1  0  0  0  0
  5 14  1  0  0  0  0
  5 15  1  0  0  0  0
  6 16  1  0  0  0  0
  6 17  1  0  0  0  0
 10 18  1  0  0  0  0
 10 19  1  0  0  0  0
 10 20  1  0  0  0  0
M  END
