 xtb: 6.7.1 (edcfbbe)
          04112516213D

 19 18  0     0  0            999 V2000
    2.9941   -0.4323   -0.1035 C   0  0  0  0  0  0  0  0  0  0  0  0
    2.1836    0.8458    0.0806 C   0  0  0  0  0  0  0  0  0  0  0  0
    0.7428    0.5941    0.5299 C   0  0  0  0  0  0  0  0  0  0  0  0
   -0.0997   -0.0840   -0.5560 C   0  0  0  0  0  0  0  0  0  0  0  0
   -1.5281   -0.3227   -0.1355 C   0  0  0  0  0  0  0  0  0  0  0  0
   -2.0315   -1.4296   -0.1907 O   0  0  0  0  0  0  0  0  0  0  0  0
   -2.2916    0.8742    0.3488 C   0  0  0  0  0  0  0  0  0  0  0  0
    2.6019   -1.0347   -0.9185 H   0  0  0  0  0  0  0  0  0  0  0  0
    4.0291   -0.1903   -0.3320 H   0  0  0  0  0  0  0  0  0  0  0  0
    2.9748   -1.0293    0.8056 H   0  0  0  0  0  0  0  0  0  0  0  0
    2.1775    1.4096   -0.8543 H   0  0  0  0  0  0  0  0  0  0  0  0
    2.6725    1.4632    0.8371 H   0  0  0  0  0  0  0  0  0  0  0  0
    0.2920    1.5515    0.7915 H   0  0  0  0  0  0  0  0  0  0  0  0
    0.7492   -0.0346    1.4228 H   0  0  0  0  0  0  0  0  0  0  0  0
   -0.1174    0.5529   -1.4435 H   0  0  0  0  0  0  0  0  0  0  0  0
    0.3346   -1.0463   -0.8298 H   0  0  0  0  0  0  0  0  0  0  0  0
   -2.0257    1.0520    1.3893 H   0  0  0  0  0  0  0  0  0  0  0  0
   -2.0385    1.7579   -0.2277 H   0  0  0  0  0  0  0  0  0  0  0  0
   -3.3591    0.6769    0.2989 H   0  0  0  0  0  0  0  0  0  0  0  0
  1  2  1  0  0  0  0
  2  3  1  0  0  0  0
  3  4  1  0  0  0  0
  4  5  1  0  0  0  0
  5  6  2  0  0  0  0
  5  7  1  0  0  0  0
  1  8  1  0  0  0  0
  1  9  1  0  0  0  0
  1 10  1  0  0  0  0
  2 11  1  0  0  0  0
  2 12  1  0  0  0  0
  3 13  1  0  0  0  0
  3 14  1  0  0  0  0
  4 15  1  0  0  0  0
  4 16  1  0  0  0  0
  7 17  1  0  0  0  0
  7 18  1  0  0  0  0
  7 19  1  0  0  0  0
M  END
