 xtb: 6.7.1 (edcfbbe)
          04112516153D

 26 25  0     0  0            999 V2000
    2.9678   -0.8075   -1.2306 C   0  0  0  0  0  0  0  0  0  0  0  0
    1.7833   -0.4386   -0.3485 C   0  0  0  0  0  0  0  0  0  0  0  0
    1.2392   -1.6730    0.3603 C   0  0  0  0  0  0  0  0  0  0  0  0
    0.7806    0.3647   -1.1097 C   0  0  0  0  0  0  0  0  0  0  0  0
   -0.4713    0.5049   -1.0276 N   0  0  0  0  0  0  0  0  0  0  0  0
   -1.1634   -0.2643   -0.0738 O   0  0  0  0  0  0  0  0  0  0  0  0
   -2.5287   -0.0976   -0.1179 C   0  0  0  0  0  0  0  0  0  0  0  0
   -3.1045    0.6204   -0.9057 O   0  0  0  0  0  0  0  0  0  0  0  0
   -3.0877   -0.8547    0.8276 N   0  0  0  0  0  0  0  0  0  0  0  0
   -4.5169   -0.9161    1.0395 C   0  0  0  0  0  0  0  0  0  0  0  0
    2.3092    0.7248    1.0264 S   0  0  0  0  0  0  0  0  0  0  0  0
    3.3038    1.9937    0.1866 C   0  0  0  0  0  0  0  0  0  0  0  0
    3.3212    0.0431   -1.8072 H   0  0  0  0  0  0  0  0  0  0  0  0
    3.7822   -1.1862   -0.6176 H   0  0  0  0  0  0  0  0  0  0  0  0
    2.6630   -1.5878   -1.9251 H   0  0  0  0  0  0  0  0  0  0  0  0
    0.5547   -1.3905    1.1553 H   0  0  0  0  0  0  0  0  0  0  0  0
    2.0638   -2.2309    0.7964 H   0  0  0  0  0  0  0  0  0  0  0  0
    0.7125   -2.3069   -0.3497 H   0  0  0  0  0  0  0  0  0  0  0  0
    1.1887    1.0164   -1.8738 H   0  0  0  0  0  0  0  0  0  0  0  0
   -2.4875   -1.4048    1.4227 H   0  0  0  0  0  0  0  0  0  0  0  0
   -4.8734   -1.9351    0.8951 H   0  0  0  0  0  0  0  0  0  0  0  0
   -4.9900   -0.2589    0.3131 H   0  0  0  0  0  0  0  0  0  0  0  0
   -4.7618   -0.5819    2.0466 H   0  0  0  0  0  0  0  0  0  0  0  0
    3.5852    2.6897    0.9702 H   0  0  0  0  0  0  0  0  0  0  0  0
    2.7062    2.5038   -0.5611 H   0  0  0  0  0  0  0  0  0  0  0  0
    4.1919    1.5451   -0.2443 H   0  0  0  0  0  0  0  0  0  0  0  0
  1  2  1  0  0  0  0
  2  3  1  0  0  0  0
  2  4  1  0  0  0  0
  4  5  2  0  0  0  0
  5  6  1  0  0  0  0
  6  7  1  0  0  0  0
  7  8  2  0  0  0  0
  7  9  4  0  0  0  0
  9 10  1  0  0  0  0
  2 11  1  0  0  0  0
 11 12  1  0  0  0  0
  1 13  1  0  0  0  0
  1 14  1  0  0  0  0
  1 15  1  0  0  0  0
  3 16  1  0  0  0  0
  3 17  1  0  0  0  0
  3 18  1  0  0  0  0
  4 19  1  0  0  0  0
  9 20  1  0  0  0  0
 10 21  1  0  0  0  0
 10 22  1  0  0  0  0
 10 23  1  0  0  0  0
 12 24  1  0  0  0  0
 12 25  1  0  0  0  0
 12 26  1  0  0  0  0
M  END
