 xtb: 6.7.1 (edcfbbe)
          04112514233D

 23 22  0     0  0            999 V2000
    1.6102    1.4319   -0.3464 C   0  0  0  0  0  0  0  0  0  0  0  0
    2.1403    0.0021   -0.4153 C   0  0  0  0  0  0  0  0  0  0  0  0
    3.6134   -0.0300   -0.0101 C   0  0  0  0  0  0  0  0  0  0  0  0
    1.3400   -0.9479    0.4842 C   0  0  0  0  0  0  0  0  0  0  0  0
   -0.1035   -1.1613    0.0459 C   0  0  0  0  0  0  0  0  0  0  0  0
   -0.9180   -0.0831    0.5297 O   0  0  0  0  0  0  0  0  0  0  0  0
   -2.1168    0.0882   -0.0082 C   0  0  0  0  0  0  0  0  0  0  0  0
   -2.5542   -0.6153   -0.8979 O   0  0  0  0  0  0  0  0  0  0  0  0
   -2.8474    1.2410    0.6125 C   0  0  0  0  0  0  0  0  0  0  0  0
    1.6519    1.8007    0.6758 H   0  0  0  0  0  0  0  0  0  0  0  0
    0.5800    1.4840   -0.6876 H   0  0  0  0  0  0  0  0  0  0  0  0
    2.2099    2.0864   -0.9748 H   0  0  0  0  0  0  0  0  0  0  0  0
    2.0565   -0.3523   -1.4492 H   0  0  0  0  0  0  0  0  0  0  0  0
    3.7298    0.3079    1.0168 H   0  0  0  0  0  0  0  0  0  0  0  0
    4.1977    0.6220   -0.6542 H   0  0  0  0  0  0  0  0  0  0  0  0
    4.0131   -1.0379   -0.0893 H   0  0  0  0  0  0  0  0  0  0  0  0
    1.3330   -0.5659    1.5059 H   0  0  0  0  0  0  0  0  0  0  0  0
    1.8297   -1.9222    0.4867 H   0  0  0  0  0  0  0  0  0  0  0  0
   -0.1975   -1.2115   -1.0442 H   0  0  0  0  0  0  0  0  0  0  0  0
   -0.5040   -2.0903    0.4649 H   0  0  0  0  0  0  0  0  0  0  0  0
   -3.2286    1.8887   -0.1721 H   0  0  0  0  0  0  0  0  0  0  0  0
   -2.1851    1.7848    1.2769 H   0  0  0  0  0  0  0  0  0  0  0  0
   -3.6982    0.8545    1.1688 H   0  0  0  0  0  0  0  0  0  0  0  0
  1  2  1  0  0  0  0
  2  3  1  0  0  0  0
  2  4  1  0  0  0  0
  4  5  1  0  0  0  0
  5  6  1  0  0  0  0
  6  7  1  0  0  0  0
  7  8  2  0  0  0  0
  7  9  1  0  0  0  0
  1 10  1  0  0  0  0
  1 11  1  0  0  0  0
  1 12  1  0  0  0  0
  2 13  1  0  0  0  0
  3 14  1  0  0  0  0
  3 15  1  0  0  0  0
  3 16  1  0  0  0  0
  4 17  1  0  0  0  0
  4 18  1  0  0  0  0
  5 19  1  0  0  0  0
  5 20  1  0  0  0  0
  9 21  1  0  0  0  0
  9 22  1  0  0  0  0
  9 23  1  0  0  0  0
M  END
