 xtb: 6.7.1 (edcfbbe)
          04112514343D

 17 16  0     0  0            999 V2000
   -2.6579   -1.5948   -0.1306 C   0  0  0  0  0  0  0  0  0  0  0  0
   -1.8013   -0.3490   -0.3384 C   0  0  0  0  0  0  0  0  0  0  0  0
   -2.3435    0.8327    0.4609 C   0  0  0  0  0  0  0  0  0  0  0  0
   -0.3612   -0.6514    0.0745 C   0  0  0  0  0  0  0  0  0  0  0  0
    0.4456    0.4652   -0.3148 O   0  0  0  0  0  0  0  0  0  0  0  0
    1.7557    0.4077   -0.0078 N   0  0  0  0  0  0  0  0  0  0  0  0
    2.1536   -0.5634    0.5623 O   0  0  0  0  0  0  0  0  0  0  0  0
    2.3832    1.3626   -0.3524 O   0  0  0  0  0  0  0  0  0  0  0  0
   -2.2872   -2.4247   -0.7259 H   0  0  0  0  0  0  0  0  0  0  0  0
   -3.6829   -1.3908   -0.4247 H   0  0  0  0  0  0  0  0  0  0  0  0
   -2.6517   -1.8886    0.9159 H   0  0  0  0  0  0  0  0  0  0  0  0
   -1.7932   -0.0851   -1.3996 H   0  0  0  0  0  0  0  0  0  0  0  0
   -2.3791    0.5901    1.5204 H   0  0  0  0  0  0  0  0  0  0  0  0
   -3.3481    1.0792    0.1302 H   0  0  0  0  0  0  0  0  0  0  0  0
   -1.7107    1.7053    0.3223 H   0  0  0  0  0  0  0  0  0  0  0  0
   -0.2818   -0.7905    1.1572 H   0  0  0  0  0  0  0  0  0  0  0  0
    0.0153   -1.5505   -0.4227 H   0  0  0  0  0  0  0  0  0  0  0  0
  1  2  1  0  0  0  0
  2  3  1  0  0  0  0
  2  4  1  0  0  0  0
  4  5  1  0  0  0  0
  5  6  1  0  0  0  0
  6  7  4  0  0  0  0
  6  8  4  0  0  0  0
  1  9  1  0  0  0  0
  1 10  1  0  0  0  0
  1 11  1  0  0  0  0
  2 12  1  0  0  0  0
  3 13  1  0  0  0  0
  3 14  1  0  0  0  0
  3 15  1  0  0  0  0
  4 16  1  0  0  0  0
  4 17  1  0  0  0  0
M  END
