 xtb: 6.7.1 (edcfbbe)
          04112516213D

 19 18  0     0  0            999 V2000
   -2.3376   -0.9444   -0.4220 C   0  0  0  0  0  0  0  0  0  0  0  0
   -2.3630    0.3724    0.3456 C   0  0  0  0  0  0  0  0  0  0  0  0
   -1.1615    1.2784    0.0664 C   0  0  0  0  0  0  0  0  0  0  0  0
    0.1833    0.6956    0.5222 C   0  0  0  0  0  0  0  0  0  0  0  0
    0.9692    0.0447   -0.6234 C   0  0  0  0  0  0  0  0  0  0  0  0
    2.2083   -0.5320   -0.1435 C   0  0  0  0  0  0  0  0  0  0  0  0
    3.2237   -1.0044    0.2795 C   0  0  0  0  0  0  0  0  0  0  0  0
   -3.2617   -1.4931   -0.2534 H   0  0  0  0  0  0  0  0  0  0  0  0
   -1.5121   -1.5711   -0.0946 H   0  0  0  0  0  0  0  0  0  0  0  0
   -2.2399   -0.7620   -1.4901 H   0  0  0  0  0  0  0  0  0  0  0  0
   -3.2711    0.9183    0.0780 H   0  0  0  0  0  0  0  0  0  0  0  0
   -2.4106    0.1633    1.4170 H   0  0  0  0  0  0  0  0  0  0  0  0
   -1.3328    2.2228    0.5876 H   0  0  0  0  0  0  0  0  0  0  0  0
   -1.1207    1.5010   -1.0020 H   0  0  0  0  0  0  0  0  0  0  0  0
    0.0182   -0.0409    1.3114 H   0  0  0  0  0  0  0  0  0  0  0  0
    0.8024    1.4891    0.9467 H   0  0  0  0  0  0  0  0  0  0  0  0
    1.2025    0.7975   -1.3817 H   0  0  0  0  0  0  0  0  0  0  0  0
    0.3767   -0.7415   -1.0952 H   0  0  0  0  0  0  0  0  0  0  0  0
    4.1171   -1.4208    0.6373 H   0  0  0  0  0  0  0  0  0  0  0  0
  1  2  1  0  0  0  0
  2  3  1  0  0  0  0
  3  4  1  0  0  0  0
  4  5  1  0  0  0  0
  5  6  1  0  0  0  0
  6  7  3  0  0  0  0
  1  8  1  0  0  0  0
  1  9  1  0  0  0  0
  1 10  1  0  0  0  0
  2 11  1  0  0  0  0
  2 12  1  0  0  0  0
  3 13  1  0  0  0  0
  3 14  1  0  0  0  0
  4 15  1  0  0  0  0
  4 16  1  0  0  0  0
  5 17  1  0  0  0  0
  5 18  1  0  0  0  0
  7 19  1  0  0  0  0
M  END
