 xtb: 6.7.1 (edcfbbe)
          04112516273D

 20 19  0     0  0            999 V2000
    3.9828    0.3902   -0.4769 C   0  0  0  0  0  0  0  0  0  0  0  0
    2.7102   -0.3350   -0.1765 C   0  0  0  0  0  0  0  0  0  0  0  0
    2.5858   -1.5372   -0.0810 O   0  0  0  0  0  0  0  0  0  0  0  0
    1.6922    0.5110   -0.0009 O   0  0  0  0  0  0  0  0  0  0  0  0
    0.4215   -0.0525    0.3155 C   0  0  0  0  0  0  0  0  0  0  0  0
   -0.5967    1.0855    0.3417 C   0  0  0  0  0  0  0  0  0  0  0  0
   -1.8617    0.6171    0.8003 O   0  0  0  0  0  0  0  0  0  0  0  0
   -2.6517   -0.0195   -0.0702 C   0  0  0  0  0  0  0  0  0  0  0  0
   -2.3360   -0.2176   -1.2234 O   0  0  0  0  0  0  0  0  0  0  0  0
   -3.9481   -0.4201    0.5578 C   0  0  0  0  0  0  0  0  0  0  0  0
    4.5130    0.5527    0.4594 H   0  0  0  0  0  0  0  0  0  0  0  0
    3.7630    1.3508   -0.9296 H   0  0  0  0  0  0  0  0  0  0  0  0
    4.6063   -0.2200   -1.1227 H   0  0  0  0  0  0  0  0  0  0  0  0
    0.1537   -0.7998   -0.4399 H   0  0  0  0  0  0  0  0  0  0  0  0
    0.4728   -0.5480    1.2913 H   0  0  0  0  0  0  0  0  0  0  0  0
   -0.7000    1.5093   -0.6617 H   0  0  0  0  0  0  0  0  0  0  0  0
   -0.2885    1.8524    1.0521 H   0  0  0  0  0  0  0  0  0  0  0  0
   -4.1823   -1.4438    0.2804 H   0  0  0  0  0  0  0  0  0  0  0  0
   -4.7353    0.2204    0.1663 H   0  0  0  0  0  0  0  0  0  0  0  0
   -3.8872   -0.3103    1.6347 H   0  0  0  0  0  0  0  0  0  0  0  0
  1  2  1  0  0  0  0
  2  3  2  0  0  0  0
  2  4  1  0  0  0  0
  4  5  1  0  0  0  0
  5  6  1  0  0  0  0
  6  7  1  0  0  0  0
  7  8  1  0  0  0  0
  8  9  2  0  0  0  0
  8 10  1  0  0  0  0
  1 11  1  0  0  0  0
  1 12  1  0  0  0  0
  1 13  1  0  0  0  0
  5 14  1  0  0  0  0
  5 15  1  0  0  0  0
  6 16  1  0  0  0  0
  6 17  1  0  0  0  0
 10 18  1  0  0  0  0
 10 19  1  0  0  0  0
 10 20  1  0  0  0  0
M  END
