 xtb: 6.7.1 (edcfbbe)
          04112516013D

 20 19  0     0  0            999 V2000
   -2.9479   -1.0409   -0.2810 C   0  0  0  0  0  0  0  0  0  0  0  0
   -2.3914    0.3760   -0.3724 C   0  0  0  0  0  0  0  0  0  0  0  0
   -1.5894    0.7888    0.8634 C   0  0  0  0  0  0  0  0  0  0  0  0
   -0.2482    0.0698    0.9721 C   0  0  0  0  0  0  0  0  0  0  0  0
    0.5591    0.4832   -0.1380 O   0  0  0  0  0  0  0  0  0  0  0  0
    1.7814    0.0055   -0.3405 C   0  0  0  0  0  0  0  0  0  0  0  0
    2.3990    0.4093   -1.3071 O   0  0  0  0  0  0  0  0  0  0  0  0
    2.3380   -1.0008    0.6240 C   0  0  0  0  0  0  0  0  0  0  0  0
   -3.5509   -1.1557    0.6168 H   0  0  0  0  0  0  0  0  0  0  0  0
   -3.5739   -1.2519   -1.1443 H   0  0  0  0  0  0  0  0  0  0  0  0
   -2.1505   -1.7792   -0.2597 H   0  0  0  0  0  0  0  0  0  0  0  0
   -1.7524    0.4683   -1.2527 H   0  0  0  0  0  0  0  0  0  0  0  0
   -3.2222    1.0733   -0.4911 H   0  0  0  0  0  0  0  0  0  0  0  0
   -1.3950    1.8610    0.8190 H   0  0  0  0  0  0  0  0  0  0  0  0
   -2.1637    0.5767    1.7656 H   0  0  0  0  0  0  0  0  0  0  0  0
    0.2503    0.3459    1.9061 H   0  0  0  0  0  0  0  0  0  0  0  0
   -0.3867   -1.0139    0.9441 H   0  0  0  0  0  0  0  0  0  0  0  0
    3.3434   -1.2613    0.3087 H   0  0  0  0  0  0  0  0  0  0  0  0
    1.7160   -1.8930    0.6346 H   0  0  0  0  0  0  0  0  0  0  0  0
    2.3637   -0.5843    1.6283 H   0  0  0  0  0  0  0  0  0  0  0  0
  1  2  1  0  0  0  0
  2  3  1  0  0  0  0
  3  4  1  0  0  0  0
  4  5  1  0  0  0  0
  5  6  1  0  0  0  0
  6  7  2  0  0  0  0
  6  8  1  0  0  0  0
  1  9  1  0  0  0  0
  1 10  1  0  0  0  0
  1 11  1  0  0  0  0
  2 12  1  0  0  0  0
  2 13  1  0  0  0  0
  3 14  1  0  0  0  0
  3 15  1  0  0  0  0
  4 16  1  0  0  0  0
  4 17  1  0  0  0  0
  8 18  1  0  0  0  0
  8 19  1  0  0  0  0
  8 20  1  0  0  0  0
M  END
