 xtb: 6.7.1 (edcfbbe)
          04112516113D

 20 19  0     0  0            999 V2000
    3.0508   -1.4701   -0.4862 C   0  0  0  0  0  0  0  0  0  0  0  0
    2.3117   -0.1700   -0.4957 C   0  0  0  0  0  0  0  0  0  0  0  0
    2.5201    0.7533   -1.2530 O   0  0  0  0  0  0  0  0  0  0  0  0
    1.3649   -0.1390    0.4462 O   0  0  0  0  0  0  0  0  0  0  0  0
    0.5457    1.0263    0.5333 C   0  0  0  0  0  0  0  0  0  0  0  0
   -0.5475    1.0280   -0.5345 C   0  0  0  0  0  0  0  0  0  0  0  0
   -1.3687   -0.1360   -0.4498 O   0  0  0  0  0  0  0  0  0  0  0  0
   -2.3110   -0.1703    0.4966 C   0  0  0  0  0  0  0  0  0  0  0  0
   -2.5135    0.7491    1.2601 O   0  0  0  0  0  0  0  0  0  0  0  0
   -3.0527   -1.4688    0.4832 C   0  0  0  0  0  0  0  0  0  0  0  0
    3.0255   -1.9036    0.5078 H   0  0  0  0  0  0  0  0  0  0  0  0
    4.0697   -1.3142   -0.8259 H   0  0  0  0  0  0  0  0  0  0  0  0
    2.5550   -2.1481   -1.1782 H   0  0  0  0  0  0  0  0  0  0  0  0
    0.1071    0.9975    1.5314 H   0  0  0  0  0  0  0  0  0  0  0  0
    1.1628    1.9202    0.4055 H   0  0  0  0  0  0  0  0  0  0  0  0
   -0.1089    1.0001   -1.5326 H   0  0  0  0  0  0  0  0  0  0  0  0
   -1.1630    1.9227   -0.4053 H   0  0  0  0  0  0  0  0  0  0  0  0
   -3.0537   -1.8845   -0.5187 H   0  0  0  0  0  0  0  0  0  0  0  0
   -4.0622   -1.3176    0.8515 H   0  0  0  0  0  0  0  0  0  0  0  0
   -2.5399   -2.1603    1.1489 H   0  0  0  0  0  0  0  0  0  0  0  0
  1  2  1  0  0  0  0
  2  3  2  0  0  0  0
  2  4  1  0  0  0  0
  4  5  1  0  0  0  0
  5  6  1  0  0  0  0
  6  7  1  0  0  0  0
  7  8  1  0  0  0  0
  8  9  2  0  0  0  0
  8 10  1  0  0  0  0
  1 11  1  0  0  0  0
  1 12  1  0  0  0  0
  1 13  1  0  0  0  0
  5 14  1  0  0  0  0
  5 15  1  0  0  0  0
  6 16  1  0  0  0  0
  6 17  1  0  0  0  0
 10 18  1  0  0  0  0
 10 19  1  0  0  0  0
 10 20  1  0  0  0  0
M  END
