 xtb: 6.7.1 (edcfbbe)
          04112516093D

 19 18  0     0  0            999 V2000
    2.8918    0.7495   -0.5544 C   0  0  0  0  0  0  0  0  0  0  0  0
    2.3045   -0.1733    0.5083 C   0  0  0  0  0  0  0  0  0  0  0  0
    0.9039   -0.6748    0.1594 C   0  0  0  0  0  0  0  0  0  0  0  0
   -0.1406    0.4382    0.1251 C   0  0  0  0  0  0  0  0  0  0  0  0
   -1.5496   -0.0838   -0.0036 C   0  0  0  0  0  0  0  0  0  0  0  0
   -1.8320   -1.2601    0.1157 O   0  0  0  0  0  0  0  0  0  0  0  0
   -2.5849    0.9647   -0.2978 C   0  0  0  0  0  0  0  0  0  0  0  0
    2.8781    0.2637   -1.5274 H   0  0  0  0  0  0  0  0  0  0  0  0
    2.3310    1.6776   -0.6221 H   0  0  0  0  0  0  0  0  0  0  0  0
    3.9223    0.9950   -0.3095 H   0  0  0  0  0  0  0  0  0  0  0  0
    2.2738    0.3484    1.4673 H   0  0  0  0  0  0  0  0  0  0  0  0
    2.9593   -1.0392    0.6256 H   0  0  0  0  0  0  0  0  0  0  0  0
    0.5910   -1.4168    0.8979 H   0  0  0  0  0  0  0  0  0  0  0  0
    0.9244   -1.1766   -0.8107 H   0  0  0  0  0  0  0  0  0  0  0  0
   -0.0961    1.0117    1.0550 H   0  0  0  0  0  0  0  0  0  0  0  0
    0.0481    1.1308   -0.6951 H   0  0  0  0  0  0  0  0  0  0  0  0
   -2.5176    1.2244   -1.3526 H   0  0  0  0  0  0  0  0  0  0  0  0
   -3.5802    0.5769   -0.0993 H   0  0  0  0  0  0  0  0  0  0  0  0
   -2.4020    1.8621    0.2847 H   0  0  0  0  0  0  0  0  0  0  0  0
  1  2  1  0  0  0  0
  2  3  1  0  0  0  0
  3  4  1  0  0  0  0
  4  5  1  0  0  0  0
  5  6  2  0  0  0  0
  5  7  1  0  0  0  0
  1  8  1  0  0  0  0
  1  9  1  0  0  0  0
  1 10  1  0  0  0  0
  2 11  1  0  0  0  0
  2 12  1  0  0  0  0
  3 13  1  0  0  0  0
  3 14  1  0  0  0  0
  4 15  1  0  0  0  0
  4 16  1  0  0  0  0
  7 17  1  0  0  0  0
  7 18  1  0  0  0  0
  7 19  1  0  0  0  0
M  END
