 xtb: 6.7.1 (edcfbbe)
          04112514133D

 23 22  0     0  0            999 V2000
    3.2547   -0.7340    0.3519 C   0  0  0  0  0  0  0  0  0  0  0  0
    1.9956   -0.4184   -0.4470 C   0  0  0  0  0  0  0  0  0  0  0  0
    1.0115    0.4312    0.3556 C   0  0  0  0  0  0  0  0  0  0  0  0
   -0.2696    0.7575   -0.4302 C   0  0  0  0  0  0  0  0  0  0  0  0
   -1.5566    0.3213    0.2808 C   0  0  0  0  0  0  0  0  0  0  0  0
   -2.7742    0.9358   -0.4080 C   0  0  0  0  0  0  0  0  0  0  0  0
   -1.6850   -1.2002    0.3012 C   0  0  0  0  0  0  0  0  0  0  0  0
    3.7634    0.1837    0.6392 H   0  0  0  0  0  0  0  0  0  0  0  0
    3.0037   -1.2828    1.2571 H   0  0  0  0  0  0  0  0  0  0  0  0
    3.9409   -1.3376   -0.2370 H   0  0  0  0  0  0  0  0  0  0  0  0
    1.5096   -1.3516   -0.7404 H   0  0  0  0  0  0  0  0  0  0  0  0
    2.2705    0.1149   -1.3599 H   0  0  0  0  0  0  0  0  0  0  0  0
    0.7576   -0.1017    1.2741 H   0  0  0  0  0  0  0  0  0  0  0  0
    1.5096    1.3560    0.6537 H   0  0  0  0  0  0  0  0  0  0  0  0
   -0.3213    1.8326   -0.6117 H   0  0  0  0  0  0  0  0  0  0  0  0
   -0.2340    0.2688   -1.4063 H   0  0  0  0  0  0  0  0  0  0  0  0
   -1.5231    0.6867    1.3137 H   0  0  0  0  0  0  0  0  0  0  0  0
   -3.6905    0.6258    0.0889 H   0  0  0  0  0  0  0  0  0  0  0  0
   -2.7223    2.0219   -0.3854 H   0  0  0  0  0  0  0  0  0  0  0  0
   -2.8217    0.6156   -1.4467 H   0  0  0  0  0  0  0  0  0  0  0  0
   -2.5773   -1.4995    0.8462 H   0  0  0  0  0  0  0  0  0  0  0  0
   -0.8240   -1.6600    0.7790 H   0  0  0  0  0  0  0  0  0  0  0  0
   -1.7585   -1.5834   -0.7146 H   0  0  0  0  0  0  0  0  0  0  0  0
  1  2  1  0  0  0  0
  2  3  1  0  0  0  0
  3  4  1  0  0  0  0
  4  5  1  0  0  0  0
  5  6  1  0  0  0  0
  5  7  1  0  0  0  0
  1  8  1  0  0  0  0
  1  9  1  0  0  0  0
  1 10  1  0  0  0  0
  2 11  1  0  0  0  0
  2 12  1  0  0  0  0
  3 13  1  0  0  0  0
  3 14  1  0  0  0  0
  4 15  1  0  0  0  0
  4 16  1  0  0  0  0
  5 17  1  0  0  0  0
  6 18  1  0  0  0  0
  6 19  1  0  0  0  0
  6 20  1  0  0  0  0
  7 21  1  0  0  0  0
  7 22  1  0  0  0  0
  7 23  1  0  0  0  0
M  END
