 xtb: 6.7.1 (edcfbbe)
          04112514233D

 23 22  0     0  0            999 V2000
    3.5832   -0.7396   -0.6038 C   0  0  0  0  0  0  0  0  0  0  0  0
    2.4682   -0.1654    0.2690 C   0  0  0  0  0  0  0  0  0  0  0  0
    2.6881    1.3307    0.4822 C   0  0  0  0  0  0  0  0  0  0  0  0
    1.1097   -0.4504   -0.3805 C   0  0  0  0  0  0  0  0  0  0  0  0
   -0.0671   -0.0969    0.5212 C   0  0  0  0  0  0  0  0  0  0  0  0
   -1.2670   -0.6217   -0.0666 O   0  0  0  0  0  0  0  0  0  0  0  0
   -2.3808    0.0977   -0.0205 C   0  0  0  0  0  0  0  0  0  0  0  0
   -2.4551    1.1898    0.5065 O   0  0  0  0  0  0  0  0  0  0  0  0
   -3.5202   -0.6083   -0.6919 C   0  0  0  0  0  0  0  0  0  0  0  0
    4.5522   -0.5659   -0.1433 H   0  0  0  0  0  0  0  0  0  0  0  0
    3.5782   -0.2655   -1.5824 H   0  0  0  0  0  0  0  0  0  0  0  0
    3.4542   -1.8104   -0.7390 H   0  0  0  0  0  0  0  0  0  0  0  0
    2.4964   -0.6650    1.2435 H   0  0  0  0  0  0  0  0  0  0  0  0
    2.6223    1.8612   -0.4651 H   0  0  0  0  0  0  0  0  0  0  0  0
    3.6736    1.5078    0.9056 H   0  0  0  0  0  0  0  0  0  0  0  0
    1.9481    1.7441    1.1621 H   0  0  0  0  0  0  0  0  0  0  0  0
    1.0371   -1.5141   -0.6140 H   0  0  0  0  0  0  0  0  0  0  0  0
    1.0250    0.1052   -1.3161 H   0  0  0  0  0  0  0  0  0  0  0  0
    0.0458   -0.5610    1.5061 H   0  0  0  0  0  0  0  0  0  0  0  0
   -0.1883    0.9827    0.6470 H   0  0  0  0  0  0  0  0  0  0  0  0
   -4.2738   -0.8449    0.0553 H   0  0  0  0  0  0  0  0  0  0  0  0
   -3.1648   -1.5163   -1.1663 H   0  0  0  0  0  0  0  0  0  0  0  0
   -3.9723    0.0580   -1.4214 H   0  0  0  0  0  0  0  0  0  0  0  0
  1  2  1  0  0  0  0
  2  3  1  0  0  0  0
  2  4  1  0  0  0  0
  4  5  1  0  0  0  0
  5  6  1  0  0  0  0
  6  7  1  0  0  0  0
  7  8  2  0  0  0  0
  7  9  1  0  0  0  0
  1 10  1  0  0  0  0
  1 11  1  0  0  0  0
  1 12  1  0  0  0  0
  2 13  1  0  0  0  0
  3 14  1  0  0  0  0
  3 15  1  0  0  0  0
  3 16  1  0  0  0  0
  4 17  1  0  0  0  0
  4 18  1  0  0  0  0
  5 19  1  0  0  0  0
  5 20  1  0  0  0  0
  9 21  1  0  0  0  0
  9 22  1  0  0  0  0
  9 23  1  0  0  0  0
M  END
