 xtb: 6.7.1 (edcfbbe)
          04112514153D

 17 16  0     0  0            999 V2000
    2.4272   -1.2260    0.1922 C   0  0  0  0  0  0  0  0  0  0  0  0
    2.2421    0.1369   -0.4669 C   0  0  0  0  0  0  0  0  0  0  0  0
    1.3044    1.0380    0.3352 C   0  0  0  0  0  0  0  0  0  0  0  0
   -0.1329    0.6755    0.3188 C   0  0  0  0  0  0  0  0  0  0  0  0
   -0.7524   -0.2135   -0.4716 C   0  0  0  0  0  0  0  0  0  0  0  0
   -2.1801   -0.4306   -0.3745 C   0  0  0  0  0  0  0  0  0  0  0  0
   -2.9369    0.1227    0.4048 O   0  0  0  0  0  0  0  0  0  0  0  0
    3.0724   -1.8569   -0.4139 H   0  0  0  0  0  0  0  0  0  0  0  0
    2.8843   -1.1131    1.1727 H   0  0  0  0  0  0  0  0  0  0  0  0
    1.4724   -1.7295    0.3197 H   0  0  0  0  0  0  0  0  0  0  0  0
    1.8605    0.0144   -1.4810 H   0  0  0  0  0  0  0  0  0  0  0  0
    3.2142    0.6275   -0.5402 H   0  0  0  0  0  0  0  0  0  0  0  0
    1.3719    2.0648   -0.0398 H   0  0  0  0  0  0  0  0  0  0  0  0
    1.6343    1.0736    1.3773 H   0  0  0  0  0  0  0  0  0  0  0  0
   -0.7569    1.2184    1.0206 H   0  0  0  0  0  0  0  0  0  0  0  0
   -0.2290   -0.7990   -1.2098 H   0  0  0  0  0  0  0  0  0  0  0  0
   -2.5840   -1.1734   -1.0870 H   0  0  0  0  0  0  0  0  0  0  0  0
  1  2  1  0  0  0  0
  2  3  1  0  0  0  0
  3  4  1  0  0  0  0
  4  5  2  0  0  0  0
  5  6  1  0  0  0  0
  6  7  2  0  0  0  0
  1  8  1  0  0  0  0
  1  9  1  0  0  0  0
  1 10  1  0  0  0  0
  2 11  1  0  0  0  0
  2 12  1  0  0  0  0
  3 13  1  0  0  0  0
  3 14  1  0  0  0  0
  4 15  1  0  0  0  0
  5 16  1  0  0  0  0
  6 17  1  0  0  0  0
M  END
