 xtb: 6.7.1 (edcfbbe)
          04112516203D

 17 16  0     0  0            999 V2000
   -3.3974   -1.3207    0.1059 C   0  0  0  0  0  0  0  0  0  0  0  0
   -3.1965    0.1500   -0.2474 C   0  0  0  0  0  0  0  0  0  0  0  0
   -2.2969    0.8991    0.7459 C   0  0  0  0  0  0  0  0  0  0  0  0
   -0.8374    1.0358    0.3017 C   0  0  0  0  0  0  0  0  0  0  0  0
   -0.1331   -0.3028    0.2104 C   0  0  0  0  0  0  0  0  0  0  0  0
    1.7863   -0.0655   -0.1984 Br  0  0  0  0  0  0  0  0  0  0  0  0
   -2.4551   -1.8611    0.1297 H   0  0  0  0  0  0  0  0  0  0  0  0
   -4.0444   -1.7971   -0.6270 H   0  0  0  0  0  0  0  0  0  0  0  0
   -3.8663   -1.4122    1.0830 H   0  0  0  0  0  0  0  0  0  0  0  0
   -2.7804    0.2336   -1.2533 H   0  0  0  0  0  0  0  0  0  0  0  0
   -4.1776    0.6276   -0.2653 H   0  0  0  0  0  0  0  0  0  0  0  0
   -2.6802    1.9113    0.8825 H   0  0  0  0  0  0  0  0  0  0  0  0
   -2.3345    0.4018    1.7167 H   0  0  0  0  0  0  0  0  0  0  0  0
   -0.7955    1.5356   -0.6688 H   0  0  0  0  0  0  0  0  0  0  0  0
   -0.3112    1.6662    1.0227 H   0  0  0  0  0  0  0  0  0  0  0  0
   -0.5188   -0.9205   -0.5972 H   0  0  0  0  0  0  0  0  0  0  0  0
   -0.1646   -0.8453    1.1537 H   0  0  0  0  0  0  0  0  0  0  0  0
  1  2  1  0  0  0  0
  2  3  1  0  0  0  0
  3  4  1  0  0  0  0
  4  5  1  0  0  0  0
  5  6  1  0  0  0  0
  1  7  1  0  0  0  0
  1  8  1  0  0  0  0
  1  9  1  0  0  0  0
  2 10  1  0  0  0  0
  2 11  1  0  0  0  0
  3 12  1  0  0  0  0
  3 13  1  0  0  0  0
  4 14  1  0  0  0  0
  4 15  1  0  0  0  0
  5 16  1  0  0  0  0
  5 17  1  0  0  0  0
M  END
