 xtb: 6.7.1 (edcfbbe)
          04112514233D

 23 22  0     0  0            999 V2000
    1.7193    1.3919    0.6171 C   0  0  0  0  0  0  0  0  0  0  0  0
    1.6646    0.2121   -0.3518 C   0  0  0  0  0  0  0  0  0  0  0  0
    3.0144    0.0395   -1.0470 C   0  0  0  0  0  0  0  0  0  0  0  0
    1.2890   -1.0954    0.3567 C   0  0  0  0  0  0  0  0  0  0  0  0
   -0.1036   -1.0952    0.9815 C   0  0  0  0  0  0  0  0  0  0  0  0
   -1.1108   -0.9409   -0.0291 O   0  0  0  0  0  0  0  0  0  0  0  0
   -1.8337    0.1705   -0.0649 C   0  0  0  0  0  0  0  0  0  0  0  0
   -1.7230    1.0766    0.7368 O   0  0  0  0  0  0  0  0  0  0  0  0
   -2.8033    0.1586   -1.2090 C   0  0  0  0  0  0  0  0  0  0  0  0
    2.3811    1.1695    1.4510 H   0  0  0  0  0  0  0  0  0  0  0  0
    0.7316    1.6285    1.0068 H   0  0  0  0  0  0  0  0  0  0  0  0
    2.0934    2.2766    0.1072 H   0  0  0  0  0  0  0  0  0  0  0  0
    0.9061    0.4241   -1.1148 H   0  0  0  0  0  0  0  0  0  0  0  0
    3.7912   -0.1620   -0.3133 H   0  0  0  0  0  0  0  0  0  0  0  0
    3.2799    0.9434   -1.5893 H   0  0  0  0  0  0  0  0  0  0  0  0
    2.9820   -0.7870   -1.7525 H   0  0  0  0  0  0  0  0  0  0  0  0
    2.0080   -1.2966    1.1518 H   0  0  0  0  0  0  0  0  0  0  0  0
    1.3363   -1.9125   -0.3655 H   0  0  0  0  0  0  0  0  0  0  0  0
   -0.3032   -2.0586    1.4561 H   0  0  0  0  0  0  0  0  0  0  0  0
   -0.2172   -0.2937    1.7156 H   0  0  0  0  0  0  0  0  0  0  0  0
   -2.5952    1.0072   -1.8558 H   0  0  0  0  0  0  0  0  0  0  0  0
   -3.8113    0.2767   -0.8200 H   0  0  0  0  0  0  0  0  0  0  0  0
   -2.7137   -0.7706   -1.7609 H   0  0  0  0  0  0  0  0  0  0  0  0
  1  2  1  0  0  0  0
  2  3  1  0  0  0  0
  2  4  1  0  0  0  0
  4  5  1  0  0  0  0
  5  6  1  0  0  0  0
  6  7  1  0  0  0  0
  7  8  2  0  0  0  0
  7  9  1  0  0  0  0
  1 10  1  0  0  0  0
  1 11  1  0  0  0  0
  1 12  1  0  0  0  0
  2 13  1  0  0  0  0
  3 14  1  0  0  0  0
  3 15  1  0  0  0  0
  3 16  1  0  0  0  0
  4 17  1  0  0  0  0
  4 18  1  0  0  0  0
  5 19  1  0  0  0  0
  5 20  1  0  0  0  0
  9 21  1  0  0  0  0
  9 22  1  0  0  0  0
  9 23  1  0  0  0  0
M  END
