 xtb: 6.7.1 (edcfbbe)
          04112516593D

 20 19  0     0  0            999 V2000
   -3.6154   -0.7398   -0.0185 C   0  0  0  0  0  0  0  0  0  0  0  0
   -2.1819   -0.3940   -0.4020 C   0  0  0  0  0  0  0  0  0  0  0  0
   -1.6097    0.7021    0.4954 C   0  0  0  0  0  0  0  0  0  0  0  0
   -0.1790    1.0610    0.1231 C   0  0  0  0  0  0  0  0  0  0  0  0
    0.6656   -0.0633    0.4104 O   0  0  0  0  0  0  0  0  0  0  0  0
    1.8979   -0.0579   -0.0797 C   0  0  0  0  0  0  0  0  0  0  0  0
    2.3423    0.8544   -0.7479 O   0  0  0  0  0  0  0  0  0  0  0  0
    2.6467   -1.3054    0.2803 C   0  0  0  0  0  0  0  0  0  0  0  0
   -4.0039   -1.5218   -0.6656 H   0  0  0  0  0  0  0  0  0  0  0  0
   -3.6608   -1.0897    1.0098 H   0  0  0  0  0  0  0  0  0  0  0  0
   -4.2555    0.1342   -0.1122 H   0  0  0  0  0  0  0  0  0  0  0  0
   -1.5552   -1.2837   -0.3193 H   0  0  0  0  0  0  0  0  0  0  0  0
   -2.1529   -0.0597   -1.4415 H   0  0  0  0  0  0  0  0  0  0  0  0
   -2.2173    1.6036    0.4122 H   0  0  0  0  0  0  0  0  0  0  0  0
   -1.6258    0.3689    1.5338 H   0  0  0  0  0  0  0  0  0  0  0  0
   -0.0855    1.3049   -0.9406 H   0  0  0  0  0  0  0  0  0  0  0  0
    0.1817    1.9166    0.7034 H   0  0  0  0  0  0  0  0  0  0  0  0
    2.1420   -1.8192    1.0911 H   0  0  0  0  0  0  0  0  0  0  0  0
    3.6667   -1.0498    0.5513 H   0  0  0  0  0  0  0  0  0  0  0  0
    2.6817   -1.9508   -0.5948 H   0  0  0  0  0  0  0  0  0  0  0  0
  1  2  1  0  0  0  0
  2  3  1  0  0  0  0
  3  4  1  0  0  0  0
  4  5  1  0  0  0  0
  5  6  1  0  0  0  0
  6  7  2  0  0  0  0
  6  8  1  0  0  0  0
  1  9  1  0  0  0  0
  1 10  1  0  0  0  0
  1 11  1  0  0  0  0
  2 12  1  0  0  0  0
  2 13  1  0  0  0  0
  3 14  1  0  0  0  0
  3 15  1  0  0  0  0
  4 16  1  0  0  0  0
  4 17  1  0  0  0  0
  8 18  1  0  0  0  0
  8 19  1  0  0  0  0
  8 20  1  0  0  0  0
M  END
