 xtb: 6.7.1 (edcfbbe)
          04112514483D

 18 17  0     0  0            999 V2000
    2.5501    0.1714    0.6910 C   0  0  0  0  0  0  0  0  0  0  0  0
    1.8148   -0.1506   -0.6056 C   0  0  0  0  0  0  0  0  0  0  0  0
    0.3381    0.2477   -0.5793 C   0  0  0  0  0  0  0  0  0  0  0  0
   -0.4848   -0.5939    0.3919 C   0  0  0  0  0  0  0  0  0  0  0  0
   -1.9556   -0.3112    0.3891 C   0  0  0  0  0  0  0  0  0  0  0  0
   -2.5877    0.6114   -0.3123 C   0  0  0  0  0  0  0  0  0  0  0  0
    2.1637   -0.4179    1.5183 H   0  0  0  0  0  0  0  0  0  0  0  0
    2.4409    1.2254    0.9372 H   0  0  0  0  0  0  0  0  0  0  0  0
    3.6100   -0.0484    0.5866 H   0  0  0  0  0  0  0  0  0  0  0  0
    2.3016    0.3822   -1.4258 H   0  0  0  0  0  0  0  0  0  0  0  0
    1.8967   -1.2200   -0.8137 H   0  0  0  0  0  0  0  0  0  0  0  0
    0.2566    1.3019   -0.3066 H   0  0  0  0  0  0  0  0  0  0  0  0
   -0.0726    0.1260   -1.5841 H   0  0  0  0  0  0  0  0  0  0  0  0
   -0.3427   -1.6541    0.1590 H   0  0  0  0  0  0  0  0  0  0  0  0
   -0.1211   -0.4431    1.4122 H   0  0  0  0  0  0  0  0  0  0  0  0
   -2.5241   -0.9532    1.0518 H   0  0  0  0  0  0  0  0  0  0  0  0
   -3.6549    0.7370   -0.2406 H   0  0  0  0  0  0  0  0  0  0  0  0
   -2.0800    1.2803   -0.9850 H   0  0  0  0  0  0  0  0  0  0  0  0
  1  2  1  0  0  0  0
  2  3  1  0  0  0  0
  3  4  1  0  0  0  0
  4  5  1  0  0  0  0
  5  6  2  0  0  0  0
  1  7  1  0  0  0  0
  1  8  1  0  0  0  0
  1  9  1  0  0  0  0
  2 10  1  0  0  0  0
  2 11  1  0  0  0  0
  3 12  1  0  0  0  0
  3 13  1  0  0  0  0
  4 14  1  0  0  0  0
  4 15  1  0  0  0  0
  5 16  1  0  0  0  0
  6 17  1  0  0  0  0
  6 18  1  0  0  0  0
M  END
