 xtb: 6.7.1 (edcfbbe)
          04112514133D

 23 22  0     0  0            999 V2000
    2.5572    0.7604   -0.5130 C   0  0  0  0  0  0  0  0  0  0  0  0
    1.8910    0.0690    0.6712 C   0  0  0  0  0  0  0  0  0  0  0  0
    1.0288   -1.1259    0.2614 C   0  0  0  0  0  0  0  0  0  0  0  0
   -0.2320   -0.7799   -0.5350 C   0  0  0  0  0  0  0  0  0  0  0  0
   -1.2809    0.0207    0.2600 C   0  0  0  0  0  0  0  0  0  0  0  0
   -1.2755    1.4998   -0.1250 C   0  0  0  0  0  0  0  0  0  0  0  0
   -2.6800   -0.5558    0.0401 C   0  0  0  0  0  0  0  0  0  0  0  0
    1.8175    1.1819   -1.1884 H   0  0  0  0  0  0  0  0  0  0  0  0
    3.1990    1.5673   -0.1668 H   0  0  0  0  0  0  0  0  0  0  0  0
    3.1662    0.0524   -1.0708 H   0  0  0  0  0  0  0  0  0  0  0  0
    1.2847    0.7879    1.2243 H   0  0  0  0  0  0  0  0  0  0  0  0
    2.6696   -0.2889    1.3497 H   0  0  0  0  0  0  0  0  0  0  0  0
    1.6412   -1.8045   -0.3383 H   0  0  0  0  0  0  0  0  0  0  0  0
    0.7301   -1.6664    1.1634 H   0  0  0  0  0  0  0  0  0  0  0  0
    0.0415   -0.2318   -1.4371 H   0  0  0  0  0  0  0  0  0  0  0  0
   -0.6782   -1.7229   -0.8586 H   0  0  0  0  0  0  0  0  0  0  0  0
   -1.0473   -0.0604    1.3275 H   0  0  0  0  0  0  0  0  0  0  0  0
   -1.5565    1.6166   -1.1700 H   0  0  0  0  0  0  0  0  0  0  0  0
   -1.9887    2.0526    0.4831 H   0  0  0  0  0  0  0  0  0  0  0  0
   -0.2929    1.9407    0.0176 H   0  0  0  0  0  0  0  0  0  0  0  0
   -3.4198    0.0142    0.5981 H   0  0  0  0  0  0  0  0  0  0  0  0
   -2.7259   -1.5909    0.3705 H   0  0  0  0  0  0  0  0  0  0  0  0
   -2.9430   -0.5175   -1.0151 H   0  0  0  0  0  0  0  0  0  0  0  0
  1  2  1  0  0  0  0
  2  3  1  0  0  0  0
  3  4  1  0  0  0  0
  4  5  1  0  0  0  0
  5  6  1  0  0  0  0
  5  7  1  0  0  0  0
  1  8  1  0  0  0  0
  1  9  1  0  0  0  0
  1 10  1  0  0  0  0
  2 11  1  0  0  0  0
  2 12  1  0  0  0  0
  3 13  1  0  0  0  0
  3 14  1  0  0  0  0
  4 15  1  0  0  0  0
  4 16  1  0  0  0  0
  5 17  1  0  0  0  0
  6 18  1  0  0  0  0
  6 19  1  0  0  0  0
  6 20  1  0  0  0  0
  7 21  1  0  0  0  0
  7 22  1  0  0  0  0
  7 23  1  0  0  0  0
M  END
