 xtb: 6.7.1 (edcfbbe)
          04112516053D

 26 26  0     0  0            999 V2000
   -4.5217   -0.8376    0.6225 C   0  0  0  0  0  0  0  0  0  0  0  0
   -3.0788   -0.3692    0.7636 C   0  0  0  0  0  0  0  0  0  0  0  0
   -2.3975   -0.2118   -0.6016 C   0  0  0  0  0  0  0  0  0  0  0  0
   -0.9785    0.2522   -0.4392 C   0  0  0  0  0  0  0  0  0  0  0  0
   -0.6659    1.6014   -0.4283 C   0  0  0  0  0  0  0  0  0  0  0  0
    0.6386    2.0247   -0.2359 C   0  0  0  0  0  0  0  0  0  0  0  0
    1.6517    1.1015   -0.0478 C   0  0  0  0  0  0  0  0  0  0  0  0
    1.3455   -0.2690   -0.0540 C   0  0  0  0  0  0  0  0  0  0  0  0
    0.0391   -0.6783   -0.2476 C   0  0  0  0  0  0  0  0  0  0  0  0
    2.4250   -1.1033    0.1405 O   0  0  0  0  0  0  0  0  0  0  0  0
    2.2010   -2.4979    0.1494 C   0  0  0  0  0  0  0  0  0  0  0  0
    2.9333    1.5297    0.1389 O   0  0  0  0  0  0  0  0  0  0  0  0
   -4.5627   -1.7997    0.1167 H   0  0  0  0  0  0  0  0  0  0  0  0
   -4.9851   -0.9426    1.6002 H   0  0  0  0  0  0  0  0  0  0  0  0
   -5.0994   -0.1213    0.0429 H   0  0  0  0  0  0  0  0  0  0  0  0
   -2.5157   -1.0876    1.3631 H   0  0  0  0  0  0  0  0  0  0  0  0
   -3.0513    0.5891    1.2864 H   0  0  0  0  0  0  0  0  0  0  0  0
   -2.9565    0.5127   -1.1961 H   0  0  0  0  0  0  0  0  0  0  0  0
   -2.4193   -1.1708   -1.1227 H   0  0  0  0  0  0  0  0  0  0  0  0
   -1.4441    2.3345   -0.5743 H   0  0  0  0  0  0  0  0  0  0  0  0
    0.8927    3.0725   -0.2293 H   0  0  0  0  0  0  0  0  0  0  0  0
   -0.2076   -1.7283   -0.2554 H   0  0  0  0  0  0  0  0  0  0  0  0
    1.8008   -2.8384   -0.8090 H   0  0  0  0  0  0  0  0  0  0  0  0
    1.5221   -2.7823    0.9573 H   0  0  0  0  0  0  0  0  0  0  0  0
    3.1786   -2.9439    0.3179 H   0  0  0  0  0  0  0  0  0  0  0  0
    3.5071    0.7550    0.2517 H   0  0  0  0  0  0  0  0  0  0  0  0
  1  2  1  0  0  0  0
  2  3  1  0  0  0  0
  3  4  1  0  0  0  0
  4  5  4  0  0  0  0
  5  6  4  0  0  0  0
  6  7  4  0  0  0  0
  7  8  4  0  0  0  0
  4  9  4  0  0  0  0
  8  9  4  0  0  0  0
  8 10  1  0  0  0  0
 10 11  1  0  0  0  0
  7 12  1  0  0  0  0
  1 13  1  0  0  0  0
  1 14  1  0  0  0  0
  1 15  1  0  0  0  0
  2 16  1  0  0  0  0
  2 17  1  0  0  0  0
  3 18  1  0  0  0  0
  3 19  1  0  0  0  0
  5 20  1  0  0  0  0
  6 21  1  0  0  0  0
  9 22  1  0  0  0  0
 11 23  1  0  0  0  0
 11 24  1  0  0  0  0
 11 25  1  0  0  0  0
 12 26  1  0  0  0  0
M  END
