 xtb: 6.7.1 (edcfbbe)
          04112516423D

 26 25  0     0  0            999 V2000
    1.5961   -1.1239   -1.7822 C   0  0  0  0  0  0  0  0  0  0  0  0
    1.9471   -0.6202   -0.3808 C   0  0  0  0  0  0  0  0  0  0  0  0
    3.4210   -0.8541   -0.0768 C   0  0  0  0  0  0  0  0  0  0  0  0
    1.0766   -1.2696    0.6472 C   0  0  0  0  0  0  0  0  0  0  0  0
   -0.1722   -1.2104    0.8221 N   0  0  0  0  0  0  0  0  0  0  0  0
   -0.8893   -0.4125   -0.0894 O   0  0  0  0  0  0  0  0  0  0  0  0
   -2.1852   -0.1482    0.2895 C   0  0  0  0  0  0  0  0  0  0  0  0
   -2.6729   -0.5072    1.3392 O   0  0  0  0  0  0  0  0  0  0  0  0
   -2.7781    0.5617   -0.6700 N   0  0  0  0  0  0  0  0  0  0  0  0
   -4.1403    1.0357   -0.5671 C   0  0  0  0  0  0  0  0  0  0  0  0
    1.6062    1.2156   -0.3990 S   0  0  0  0  0  0  0  0  0  0  0  0
    1.6532    1.6455    1.3632 C   0  0  0  0  0  0  0  0  0  0  0  0
    0.5411   -0.9676   -1.9901 H   0  0  0  0  0  0  0  0  0  0  0  0
    2.1816   -0.5813   -2.5197 H   0  0  0  0  0  0  0  0  0  0  0  0
    1.8188   -2.1856   -1.8569 H   0  0  0  0  0  0  0  0  0  0  0  0
    3.6783   -0.5013    0.9192 H   0  0  0  0  0  0  0  0  0  0  0  0
    4.0329   -0.3241   -0.8020 H   0  0  0  0  0  0  0  0  0  0  0  0
    3.6460   -1.9167   -0.1356 H   0  0  0  0  0  0  0  0  0  0  0  0
    1.5612   -1.8951    1.3857 H   0  0  0  0  0  0  0  0  0  0  0  0
   -2.2358    0.8201   -1.4807 H   0  0  0  0  0  0  0  0  0  0  0  0
   -4.1620    2.1247   -0.5734 H   0  0  0  0  0  0  0  0  0  0  0  0
   -4.5513    0.6694    0.3713 H   0  0  0  0  0  0  0  0  0  0  0  0
   -4.7312    0.6532   -1.3978 H   0  0  0  0  0  0  0  0  0  0  0  0
    0.8285    1.1669    1.8851 H   0  0  0  0  0  0  0  0  0  0  0  0
    1.5422    2.7239    1.4036 H   0  0  0  0  0  0  0  0  0  0  0  0
    2.6064    1.3546    1.7924 H   0  0  0  0  0  0  0  0  0  0  0  0
  1  2  1  0  0  0  0
  2  3  1  0  0  0  0
  2  4  1  0  0  0  0
  4  5  2  0  0  0  0
  5  6  1  0  0  0  0
  6  7  1  0  0  0  0
  7  8  2  0  0  0  0
  7  9  4  0  0  0  0
  9 10  1  0  0  0  0
  2 11  1  0  0  0  0
 11 12  1  0  0  0  0
  1 13  1  0  0  0  0
  1 14  1  0  0  0  0
  1 15  1  0  0  0  0
  3 16  1  0  0  0  0
  3 17  1  0  0  0  0
  3 18  1  0  0  0  0
  4 19  1  0  0  0  0
  9 20  1  0  0  0  0
 10 21  1  0  0  0  0
 10 22  1  0  0  0  0
 10 23  1  0  0  0  0
 12 24  1  0  0  0  0
 12 25  1  0  0  0  0
 12 26  1  0  0  0  0
M  END
