 xtb: 6.7.1 (edcfbbe)
          04112516153D

 26 25  0     0  0            999 V2000
    3.1902   -0.6152   -1.2482 C   0  0  0  0  0  0  0  0  0  0  0  0
    1.9145   -0.5655   -0.4178 C   0  0  0  0  0  0  0  0  0  0  0  0
    1.8201   -1.7853    0.4998 C   0  0  0  0  0  0  0  0  0  0  0  0
    0.7106   -0.4337   -1.2893 C   0  0  0  0  0  0  0  0  0  0  0  0
   -0.5162   -0.3482   -0.9968 N   0  0  0  0  0  0  0  0  0  0  0  0
   -0.8528   -0.3931    0.3717 O   0  0  0  0  0  0  0  0  0  0  0  0
   -2.1850   -0.2228    0.6477 C   0  0  0  0  0  0  0  0  0  0  0  0
   -2.5138   -0.2814    1.8182 O   0  0  0  0  0  0  0  0  0  0  0  0
   -2.9783   -0.0056   -0.3933 N   0  0  0  0  0  0  0  0  0  0  0  0
   -4.4051    0.1851   -0.2706 C   0  0  0  0  0  0  0  0  0  0  0  0
    1.9568    0.9157    0.7243 S   0  0  0  0  0  0  0  0  0  0  0  0
    1.8373    2.3092   -0.4408 C   0  0  0  0  0  0  0  0  0  0  0  0
    4.0555   -0.6007   -0.5909 H   0  0  0  0  0  0  0  0  0  0  0  0
    3.2104   -1.5316   -1.8337 H   0  0  0  0  0  0  0  0  0  0  0  0
    3.2537    0.2317   -1.9264 H   0  0  0  0  0  0  0  0  0  0  0  0
    0.9368   -1.7262    1.1314 H   0  0  0  0  0  0  0  0  0  0  0  0
    2.6978   -1.8256    1.1396 H   0  0  0  0  0  0  0  0  0  0  0  0
    1.7704   -2.6934   -0.0969 H   0  0  0  0  0  0  0  0  0  0  0  0
    0.8778   -0.3733   -2.3580 H   0  0  0  0  0  0  0  0  0  0  0  0
   -2.5554   -0.0037   -1.3130 H   0  0  0  0  0  0  0  0  0  0  0  0
   -4.9352   -0.6030   -0.8034 H   0  0  0  0  0  0  0  0  0  0  0  0
   -4.6864    1.1551   -0.6777 H   0  0  0  0  0  0  0  0  0  0  0  0
   -4.6610    0.1454    0.7863 H   0  0  0  0  0  0  0  0  0  0  0  0
    0.8893    2.2701   -0.9681 H   0  0  0  0  0  0  0  0  0  0  0  0
    2.6754    2.2948   -1.1288 H   0  0  0  0  0  0  0  0  0  0  0  0
    1.8813    3.2000    0.1769 H   0  0  0  0  0  0  0  0  0  0  0  0
  1  2  1  0  0  0  0
  2  3  1  0  0  0  0
  2  4  1  0  0  0  0
  4  5  2  0  0  0  0
  5  6  1  0  0  0  0
  6  7  1  0  0  0  0
  7  8  2  0  0  0  0
  7  9  4  0  0  0  0
  9 10  1  0  0  0  0
  2 11  1  0  0  0  0
 11 12  1  0  0  0  0
  1 13  1  0  0  0  0
  1 14  1  0  0  0  0
  1 15  1  0  0  0  0
  3 16  1  0  0  0  0
  3 17  1  0  0  0  0
  3 18  1  0  0  0  0
  4 19  1  0  0  0  0
  9 20  1  0  0  0  0
 10 21  1  0  0  0  0
 10 22  1  0  0  0  0
 10 23  1  0  0  0  0
 12 24  1  0  0  0  0
 12 25  1  0  0  0  0
 12 26  1  0  0  0  0
M  END
