 xtb: 6.7.1 (edcfbbe)
          04112514133D

 23 22  0     0  0            999 V2000
    3.1431   -0.8274    0.3293 C   0  0  0  0  0  0  0  0  0  0  0  0
    1.8487   -0.4996   -0.4062 C   0  0  0  0  0  0  0  0  0  0  0  0
    1.0519    0.5887    0.3129 C   0  0  0  0  0  0  0  0  0  0  0  0
   -0.2795    0.9262   -0.3747 C   0  0  0  0  0  0  0  0  0  0  0  0
   -1.5144    0.3056    0.2906 C   0  0  0  0  0  0  0  0  0  0  0  0
   -2.7815    0.8290   -0.3853 C   0  0  0  0  0  0  0  0  0  0  0  0
   -1.4940   -1.2200    0.2416 C   0  0  0  0  0  0  0  0  0  0  0  0
    3.7024   -1.5933   -0.2025 H   0  0  0  0  0  0  0  0  0  0  0  0
    3.7684    0.0588    0.4141 H   0  0  0  0  0  0  0  0  0  0  0  0
    2.9299   -1.1915    1.3321 H   0  0  0  0  0  0  0  0  0  0  0  0
    1.2463   -1.4043   -0.4961 H   0  0  0  0  0  0  0  0  0  0  0  0
    2.0851   -0.1583   -1.4168 H   0  0  0  0  0  0  0  0  0  0  0  0
    0.8630    0.2778    1.3427 H   0  0  0  0  0  0  0  0  0  0  0  0
    1.6733    1.4860    0.3588 H   0  0  0  0  0  0  0  0  0  0  0  0
   -0.4152    2.0099   -0.3747 H   0  0  0  0  0  0  0  0  0  0  0  0
   -0.2403    0.6059   -1.4182 H   0  0  0  0  0  0  0  0  0  0  0  0
   -1.5304    0.6186    1.3413 H   0  0  0  0  0  0  0  0  0  0  0  0
   -2.8276    1.9142   -0.3306 H   0  0  0  0  0  0  0  0  0  0  0  0
   -2.7980    0.5371   -1.4333 H   0  0  0  0  0  0  0  0  0  0  0  0
   -3.6675    0.4236    0.0976 H   0  0  0  0  0  0  0  0  0  0  0  0
   -1.4251   -1.5643   -0.7882 H   0  0  0  0  0  0  0  0  0  0  0  0
   -2.4071   -1.6214    0.6762 H   0  0  0  0  0  0  0  0  0  0  0  0
   -0.6518   -1.6178    0.8005 H   0  0  0  0  0  0  0  0  0  0  0  0
  1  2  1  0  0  0  0
  2  3  1  0  0  0  0
  3  4  1  0  0  0  0
  4  5  1  0  0  0  0
  5  6  1  0  0  0  0
  5  7  1  0  0  0  0
  1  8  1  0  0  0  0
  1  9  1  0  0  0  0
  1 10  1  0  0  0  0
  2 11  1  0  0  0  0
  2 12  1  0  0  0  0
  3 13  1  0  0  0  0
  3 14  1  0  0  0  0
  4 15  1  0  0  0  0
  4 16  1  0  0  0  0
  5 17  1  0  0  0  0
  6 18  1  0  0  0  0
  6 19  1  0  0  0  0
  6 20  1  0  0  0  0
  7 21  1  0  0  0  0
  7 22  1  0  0  0  0
  7 23  1  0  0  0  0
M  END
