 xtb: 6.7.1 (edcfbbe)
          04112516113D

 17 16  0     0  0            999 V2000
   -3.3163   -1.3287    0.0880 C   0  0  0  0  0  0  0  0  0  0  0  0
   -3.3283    0.1853   -0.0974 C   0  0  0  0  0  0  0  0  0  0  0  0
   -2.2835    0.9432    0.7281 C   0  0  0  0  0  0  0  0  0  0  0  0
   -0.8721    0.9910    0.1308 C   0  0  0  0  0  0  0  0  0  0  0  0
   -0.0918   -0.2906    0.3468 C   0  0  0  0  0  0  0  0  0  0  0  0
    1.7911   -0.0711   -0.2155 Br  0  0  0  0  0  0  0  0  0  0  0  0
   -4.1889   -1.7661   -0.3916 H   0  0  0  0  0  0  0  0  0  0  0  0
   -3.3453   -1.5836    1.1449 H   0  0  0  0  0  0  0  0  0  0  0  0
   -2.4344   -1.7847   -0.3521 H   0  0  0  0  0  0  0  0  0  0  0  0
   -3.1999    0.4258   -1.1545 H   0  0  0  0  0  0  0  0  0  0  0  0
   -4.3134    0.5500    0.2012 H   0  0  0  0  0  0  0  0  0  0  0  0
   -2.6203    1.9772    0.8215 H   0  0  0  0  0  0  0  0  0  0  0  0
   -2.2391    0.5220    1.7344 H   0  0  0  0  0  0  0  0  0  0  0  0
   -0.9304    1.2110   -0.9372 H   0  0  0  0  0  0  0  0  0  0  0  0
   -0.3263    1.8094    0.6071 H   0  0  0  0  0  0  0  0  0  0  0  0
   -0.4654   -1.1204   -0.2463 H   0  0  0  0  0  0  0  0  0  0  0  0
   -0.0501   -0.5687    1.3984 H   0  0  0  0  0  0  0  0  0  0  0  0
  1  2  1  0  0  0  0
  2  3  1  0  0  0  0
  3  4  1  0  0  0  0
  4  5  1  0  0  0  0
  5  6  1  0  0  0  0
  1  7  1  0  0  0  0
  1  8  1  0  0  0  0
  1  9  1  0  0  0  0
  2 10  1  0  0  0  0
  2 11  1  0  0  0  0
  3 12  1  0  0  0  0
  3 13  1  0  0  0  0
  4 14  1  0  0  0  0
  4 15  1  0  0  0  0
  5 16  1  0  0  0  0
  5 17  1  0  0  0  0
M  END
