 xtb: 6.7.1 (edcfbbe)
          04112517153D

 20 19  0     0  0            999 V2000
   -2.3421   -1.2962   -0.1841 C   0  0  0  0  0  0  0  0  0  0  0  0
   -1.9224   -0.2107    0.8013 C   0  0  0  0  0  0  0  0  0  0  0  0
   -1.5552    1.1120    0.1268 C   0  0  0  0  0  0  0  0  0  0  0  0
   -0.3688    0.9929   -0.8390 C   0  0  0  0  0  0  0  0  0  0  0  0
    0.8517    0.4886   -0.1165 C   0  0  0  0  0  0  0  0  0  0  0  0
    1.4114    1.0604    0.7957 O   0  0  0  0  0  0  0  0  0  0  0  0
    1.2561   -0.6853   -0.5916 O   0  0  0  0  0  0  0  0  0  0  0  0
    2.4074   -1.2824    0.0094 C   0  0  0  0  0  0  0  0  0  0  0  0
   -2.7123   -2.1654    0.3538 H   0  0  0  0  0  0  0  0  0  0  0  0
   -3.1338   -0.9314   -0.8341 H   0  0  0  0  0  0  0  0  0  0  0  0
   -1.5022   -1.6119   -0.7972 H   0  0  0  0  0  0  0  0  0  0  0  0
   -2.7441   -0.0207    1.4950 H   0  0  0  0  0  0  0  0  0  0  0  0
   -1.0720   -0.5617    1.3918 H   0  0  0  0  0  0  0  0  0  0  0  0
   -1.2989    1.8405    0.8988 H   0  0  0  0  0  0  0  0  0  0  0  0
   -2.4155    1.4878   -0.4283 H   0  0  0  0  0  0  0  0  0  0  0  0
   -0.1378    1.9822   -1.2362 H   0  0  0  0  0  0  0  0  0  0  0  0
   -0.5960    0.3162   -1.6600 H   0  0  0  0  0  0  0  0  0  0  0  0
    3.2706   -0.6261   -0.1069 H   0  0  0  0  0  0  0  0  0  0  0  0
    2.5577   -2.2220   -0.5125 H   0  0  0  0  0  0  0  0  0  0  0  0
    2.2299   -1.4481    1.0728 H   0  0  0  0  0  0  0  0  0  0  0  0
  1  2  1  0  0  0  0
  2  3  1  0  0  0  0
  3  4  1  0  0  0  0
  4  5  1  0  0  0  0
  5  6  2  0  0  0  0
  5  7  1  0  0  0  0
  7  8  1  0  0  0  0
  1  9  1  0  0  0  0
  1 10  1  0  0  0  0
  1 11  1  0  0  0  0
  2 12  1  0  0  0  0
  2 13  1  0  0  0  0
  3 14  1  0  0  0  0
  3 15  1  0  0  0  0
  4 16  1  0  0  0  0
  4 17  1  0  0  0  0
  8 18  1  0  0  0  0
  8 19  1  0  0  0  0
  8 20  1  0  0  0  0
M  END
