 xtb: 6.7.1 (edcfbbe)
          04112517493D

 26 26  0     0  0            999 V2000
   -4.5402   -0.9301    0.5066 C   0  0  0  0  0  0  0  0  0  0  0  0
   -3.1027   -0.4698    0.7134 C   0  0  0  0  0  0  0  0  0  0  0  0
   -2.3991   -0.1908   -0.6207 C   0  0  0  0  0  0  0  0  0  0  0  0
   -0.9862    0.2646   -0.3936 C   0  0  0  0  0  0  0  0  0  0  0  0
   -0.6799    1.6100   -0.2748 C   0  0  0  0  0  0  0  0  0  0  0  0
    0.6184    2.0214   -0.0236 C   0  0  0  0  0  0  0  0  0  0  0  0
    1.6314    1.0897    0.1164 C   0  0  0  0  0  0  0  0  0  0  0  0
    1.3316   -0.2774    0.0011 C   0  0  0  0  0  0  0  0  0  0  0  0
    0.0315   -0.6748   -0.2507 C   0  0  0  0  0  0  0  0  0  0  0  0
    2.4103   -1.1209    0.1558 O   0  0  0  0  0  0  0  0  0  0  0  0
    2.1923   -2.5128    0.0556 C   0  0  0  0  0  0  0  0  0  0  0  0
    2.9068    1.5065    0.3620 O   0  0  0  0  0  0  0  0  0  0  0  0
   -4.5671   -1.8439   -0.0826 H   0  0  0  0  0  0  0  0  0  0  0  0
   -5.0194   -1.1230    1.4632 H   0  0  0  0  0  0  0  0  0  0  0  0
   -5.1123   -0.1681   -0.0173 H   0  0  0  0  0  0  0  0  0  0  0  0
   -2.5459   -1.2354    1.2577 H   0  0  0  0  0  0  0  0  0  0  0  0
   -3.0896    0.4393    1.3182 H   0  0  0  0  0  0  0  0  0  0  0  0
   -2.9525    0.5797   -1.1599 H   0  0  0  0  0  0  0  0  0  0  0  0
   -2.4056   -1.1010   -1.2233 H   0  0  0  0  0  0  0  0  0  0  0  0
   -1.4582    2.3498   -0.3818 H   0  0  0  0  0  0  0  0  0  0  0  0
    0.8675    3.0665    0.0671 H   0  0  0  0  0  0  0  0  0  0  0  0
   -0.2103   -1.7218   -0.3427 H   0  0  0  0  0  0  0  0  0  0  0  0
    1.4978   -2.8587    0.8254 H   0  0  0  0  0  0  0  0  0  0  0  0
    3.1681   -2.9676    0.2111 H   0  0  0  0  0  0  0  0  0  0  0  0
    1.8139   -2.7817   -0.9338 H   0  0  0  0  0  0  0  0  0  0  0  0
    3.4815    0.7271    0.4290 H   0  0  0  0  0  0  0  0  0  0  0  0
  1  2  1  0  0  0  0
  2  3  1  0  0  0  0
  3  4  1  0  0  0  0
  4  5  4  0  0  0  0
  5  6  4  0  0  0  0
  6  7  4  0  0  0  0
  7  8  4  0  0  0  0
  4  9  4  0  0  0  0
  8  9  4  0  0  0  0
  8 10  1  0  0  0  0
 10 11  1  0  0  0  0
  7 12  1  0  0  0  0
  1 13  1  0  0  0  0
  1 14  1  0  0  0  0
  1 15  1  0  0  0  0
  2 16  1  0  0  0  0
  2 17  1  0  0  0  0
  3 18  1  0  0  0  0
  3 19  1  0  0  0  0
  5 20  1  0  0  0  0
  6 21  1  0  0  0  0
  9 22  1  0  0  0  0
 11 23  1  0  0  0  0
 11 24  1  0  0  0  0
 11 25  1  0  0  0  0
 12 26  1  0  0  0  0
M  END
