 xtb: 6.7.1 (edcfbbe)
          04112516273D

 20 19  0     0  0            999 V2000
    2.3615   -1.3867    0.5288 C   0  0  0  0  0  0  0  0  0  0  0  0
    1.5264   -0.4385   -0.2701 C   0  0  0  0  0  0  0  0  0  0  0  0
    0.9097   -0.7236   -1.2756 O   0  0  0  0  0  0  0  0  0  0  0  0
    1.5298    0.7814    0.2644 O   0  0  0  0  0  0  0  0  0  0  0  0
    0.6977    1.7942   -0.3118 C   0  0  0  0  0  0  0  0  0  0  0  0
   -0.6984    1.7941    0.3119 C   0  0  0  0  0  0  0  0  0  0  0  0
   -1.5303    0.7811   -0.2642 O   0  0  0  0  0  0  0  0  0  0  0  0
   -1.5265   -0.4388    0.2702 C   0  0  0  0  0  0  0  0  0  0  0  0
   -0.9096   -0.7238    1.2756 O   0  0  0  0  0  0  0  0  0  0  0  0
   -2.3616   -1.3872   -0.5285 C   0  0  0  0  0  0  0  0  0  0  0  0
    2.7126   -2.1952   -0.1038 H   0  0  0  0  0  0  0  0  0  0  0  0
    1.7213   -1.7976    1.3089 H   0  0  0  0  0  0  0  0  0  0  0  0
    3.1842   -0.8564    0.9963 H   0  0  0  0  0  0  0  0  0  0  0  0
    1.2018    2.7344   -0.0915 H   0  0  0  0  0  0  0  0  0  0  0  0
    0.6217    1.6296   -1.3913 H   0  0  0  0  0  0  0  0  0  0  0  0
   -1.2026    2.7342    0.0916 H   0  0  0  0  0  0  0  0  0  0  0  0
   -0.6223    1.6296    1.3914 H   0  0  0  0  0  0  0  0  0  0  0  0
   -1.7213   -1.7984   -1.3084 H   0  0  0  0  0  0  0  0  0  0  0  0
   -3.1842   -0.8570   -0.9963 H   0  0  0  0  0  0  0  0  0  0  0  0
   -2.7128   -2.1955    0.1043 H   0  0  0  0  0  0  0  0  0  0  0  0
  1  2  1  0  0  0  0
  2  3  2  0  0  0  0
  2  4  1  0  0  0  0
  4  5  1  0  0  0  0
  5  6  1  0  0  0  0
  6  7  1  0  0  0  0
  7  8  1  0  0  0  0
  8  9  2  0  0  0  0
  8 10  1  0  0  0  0
  1 11  1  0  0  0  0
  1 12  1  0  0  0  0
  1 13  1  0  0  0  0
  5 14  1  0  0  0  0
  5 15  1  0  0  0  0
  6 16  1  0  0  0  0
  6 17  1  0  0  0  0
 10 18  1  0  0  0  0
 10 19  1  0  0  0  0
 10 20  1  0  0  0  0
M  END
