 xtb: 6.7.1 (edcfbbe)
          04112517403D

 33 34  0     0  0            999 V2000
   -4.2797   -0.1677   -1.7057 C   0  0  0  0  0  0  0  0  0  0  0  0
   -3.4430   -0.2071   -0.4632 C   0  0  0  0  0  0  0  0  0  0  0  0
   -4.0168   -0.5789    0.7445 C   0  0  0  0  0  0  0  0  0  0  0  0
   -3.2712   -0.5993    1.9098 C   0  0  0  0  0  0  0  0  0  0  0  0
   -1.9291   -0.2808    1.8668 C   0  0  0  0  0  0  0  0  0  0  0  0
   -1.3300    0.0662    0.6593 C   0  0  0  0  0  0  0  0  0  0  0  0
   -2.0892    0.1423   -0.5131 C   0  0  0  0  0  0  0  0  0  0  0  0
   -1.4878    0.6205   -1.8001 C   0  0  0  0  0  0  0  0  0  0  0  0
    0.0423    0.3847    0.6731 N   0  0  0  0  0  0  0  0  0  0  0  0
    1.0145   -0.2399   -0.0293 C   0  0  0  0  0  0  0  0  0  0  0  0
    0.7282   -1.3795   -0.8044 C   0  0  0  0  0  0  0  0  0  0  0  0
    1.7041   -2.0059   -1.5368 C   0  0  0  0  0  0  0  0  0  0  0  0
    3.0159   -1.5305   -1.5289 C   0  0  0  0  0  0  0  0  0  0  0  0
    3.3310   -0.4404   -0.7569 C   0  0  0  0  0  0  0  0  0  0  0  0
    2.3571    0.2201    0.0077 C   0  0  0  0  0  0  0  0  0  0  0  0
    2.7526    1.3488    0.8338 C   0  0  0  0  0  0  0  0  0  0  0  0
    2.0145    1.9677    1.5998 O   0  0  0  0  0  0  0  0  0  0  0  0
    4.0368    1.6986    0.7216 O   0  0  0  0  0  0  0  0  0  0  0  0
   -5.2701   -0.5691   -1.5105 H   0  0  0  0  0  0  0  0  0  0  0  0
   -4.3883    0.8566   -2.0603 H   0  0  0  0  0  0  0  0  0  0  0  0
   -3.8158   -0.7477   -2.5008 H   0  0  0  0  0  0  0  0  0  0  0  0
   -5.0632   -0.8445    0.7750 H   0  0  0  0  0  0  0  0  0  0  0  0
   -3.7329   -0.8726    2.8464 H   0  0  0  0  0  0  0  0  0  0  0  0
   -1.3272   -0.3046    2.7628 H   0  0  0  0  0  0  0  0  0  0  0  0
   -0.5166    1.0767   -1.6319 H   0  0  0  0  0  0  0  0  0  0  0  0
   -1.3605   -0.2024   -2.5027 H   0  0  0  0  0  0  0  0  0  0  0  0
   -2.1407    1.3569   -2.2636 H   0  0  0  0  0  0  0  0  0  0  0  0
    0.3567    1.0688    1.3531 H   0  0  0  0  0  0  0  0  0  0  0  0
   -0.2783   -1.7663   -0.7918 H   0  0  0  0  0  0  0  0  0  0  0  0
    1.4554   -2.8805   -2.1184 H   0  0  0  0  0  0  0  0  0  0  0  0
    3.7769   -2.0245   -2.1111 H   0  0  0  0  0  0  0  0  0  0  0  0
    4.3439   -0.0718   -0.7187 H   0  0  0  0  0  0  0  0  0  0  0  0
    4.2452    2.4550    1.3009 H   0  0  0  0  0  0  0  0  0  0  0  0
  1  2  1  0  0  0  0
  2  3  4  0  0  0  0
  3  4  4  0  0  0  0
  4  5  4  0  0  0  0
  5  6  4  0  0  0  0
  2  7  4  0  0  0  0
  6  7  4  0  0  0  0
  7  8  1  0  0  0  0
  6  9  1  0  0  0  0
  9 10  4  0  0  0  0
 10 11  4  0  0  0  0
 11 12  2  0  0  0  0
 12 13  4  0  0  0  0
 13 14  2  0  0  0  0
 10 15  4  0  0  0  0
 14 15  4  0  0  0  0
 15 16  1  0  0  0  0
 16 17  2  0  0  0  0
 16 18  1  0  0  0  0
  1 19  1  0  0  0  0
  1 20  1  0  0  0  0
  1 21  1  0  0  0  0
  3 22  1  0  0  0  0
  4 23  1  0  0  0  0
  5 24  1  0  0  0  0
  8 25  1  0  0  0  0
  8 26  1  0  0  0  0
  8 27  1  0  0  0  0
  9 28  1  0  0  0  0
 11 29  1  0  0  0  0
 12 30  1  0  0  0  0
 13 31  1  0  0  0  0
 14 32  1  0  0  0  0
 18 33  1  0  0  0  0
M  END
