 xtb: 6.7.1 (edcfbbe)
          04112516213D

 19 18  0     0  0            999 V2000
    1.7757   -0.4866   -1.0533 C   0  0  0  0  0  0  0  0  0  0  0  0
    2.0024    0.2065    0.2849 C   0  0  0  0  0  0  0  0  0  0  0  0
    0.8767    1.1650    0.6727 C   0  0  0  0  0  0  0  0  0  0  0  0
   -0.4120    0.4627    1.1227 C   0  0  0  0  0  0  0  0  0  0  0  0
   -1.1505   -0.3032    0.0543 C   0  0  0  0  0  0  0  0  0  0  0  0
   -1.3731   -1.4964    0.1640 O   0  0  0  0  0  0  0  0  0  0  0  0
   -1.6806    0.4947   -1.1010 C   0  0  0  0  0  0  0  0  0  0  0  0
    1.6300    0.2449   -1.8448 H   0  0  0  0  0  0  0  0  0  0  0  0
    2.6359   -1.1008   -1.3090 H   0  0  0  0  0  0  0  0  0  0  0  0
    0.9034   -1.1339   -1.0146 H   0  0  0  0  0  0  0  0  0  0  0  0
    2.9329    0.7761    0.2297 H   0  0  0  0  0  0  0  0  0  0  0  0
    2.1218   -0.5469    1.0664 H   0  0  0  0  0  0  0  0  0  0  0  0
    0.6721    1.8353   -0.1625 H   0  0  0  0  0  0  0  0  0  0  0  0
    1.2181    1.7765    1.5100 H   0  0  0  0  0  0  0  0  0  0  0  0
   -0.1830   -0.2274    1.9375 H   0  0  0  0  0  0  0  0  0  0  0  0
   -1.1027    1.2238    1.4934 H   0  0  0  0  0  0  0  0  0  0  0  0
   -1.0943    1.3873   -1.2829 H   0  0  0  0  0  0  0  0  0  0  0  0
   -1.7257   -0.1234   -1.9937 H   0  0  0  0  0  0  0  0  0  0  0  0
   -2.6985    0.7918   -0.8518 H   0  0  0  0  0  0  0  0  0  0  0  0
  1  2  1  0  0  0  0
  2  3  1  0  0  0  0
  3  4  1  0  0  0  0
  4  5  1  0  0  0  0
  5  6  2  0  0  0  0
  5  7  1  0  0  0  0
  1  8  1  0  0  0  0
  1  9  1  0  0  0  0
  1 10  1  0  0  0  0
  2 11  1  0  0  0  0
  2 12  1  0  0  0  0
  3 13  1  0  0  0  0
  3 14  1  0  0  0  0
  4 15  1  0  0  0  0
  4 16  1  0  0  0  0
  7 17  1  0  0  0  0
  7 18  1  0  0  0  0
  7 19  1  0  0  0  0
M  END
