 xtb: 6.7.1 (edcfbbe)
          04112516273D

 19 18  0     0  0            999 V2000
   -2.7635    0.2819    0.5200 C   0  0  0  0  0  0  0  0  0  0  0  0
   -1.6859   -0.7166    0.1110 C   0  0  0  0  0  0  0  0  0  0  0  0
   -0.7374   -0.1814   -0.9637 C   0  0  0  0  0  0  0  0  0  0  0  0
    0.0730    1.0501   -0.5563 C   0  0  0  0  0  0  0  0  0  0  0  0
    1.0290    0.7936    0.6153 C   0  0  0  0  0  0  0  0  0  0  0  0
    1.9911   -0.2455    0.3101 C   0  0  0  0  0  0  0  0  0  0  0  0
    2.7795   -1.1048    0.0403 C   0  0  0  0  0  0  0  0  0  0  0  0
   -2.3322    1.1427    1.0242 H   0  0  0  0  0  0  0  0  0  0  0  0
   -3.4710   -0.1868    1.2000 H   0  0  0  0  0  0  0  0  0  0  0  0
   -3.3082    0.6314   -0.3545 H   0  0  0  0  0  0  0  0  0  0  0  0
   -1.1154   -1.0220    0.9898 H   0  0  0  0  0  0  0  0  0  0  0  0
   -2.1688   -1.6134   -0.2847 H   0  0  0  0  0  0  0  0  0  0  0  0
   -1.3228    0.0717   -1.8513 H   0  0  0  0  0  0  0  0  0  0  0  0
   -0.0416   -0.9775   -1.2404 H   0  0  0  0  0  0  0  0  0  0  0  0
   -0.5997    1.8656   -0.2873 H   0  0  0  0  0  0  0  0  0  0  0  0
    0.6583    1.3742   -1.4203 H   0  0  0  0  0  0  0  0  0  0  0  0
    0.4666    0.5035    1.5058 H   0  0  0  0  0  0  0  0  0  0  0  0
    1.5729    1.7141    0.8450 H   0  0  0  0  0  0  0  0  0  0  0  0
    3.4747   -1.8563   -0.1871 H   0  0  0  0  0  0  0  0  0  0  0  0
  1  2  1  0  0  0  0
  2  3  1  0  0  0  0
  3  4  1  0  0  0  0
  4  5  1  0  0  0  0
  5  6  1  0  0  0  0
  6  7  3  0  0  0  0
  1  8  1  0  0  0  0
  1  9  1  0  0  0  0
  1 10  1  0  0  0  0
  2 11  1  0  0  0  0
  2 12  1  0  0  0  0
  3 13  1  0  0  0  0
  3 14  1  0  0  0  0
  4 15  1  0  0  0  0
  4 16  1  0  0  0  0
  5 17  1  0  0  0  0
  5 18  1  0  0  0  0
  7 19  1  0  0  0  0
M  END
