 xtb: 6.7.1 (edcfbbe)
          04112516153D

 26 25  0     0  0            999 V2000
    1.2150    0.0848   -1.5700 C   0  0  0  0  0  0  0  0  0  0  0  0
    1.6102   -0.2427   -0.1330 C   0  0  0  0  0  0  0  0  0  0  0  0
    1.5734   -1.7530    0.1153 C   0  0  0  0  0  0  0  0  0  0  0  0
    0.7388    0.4416    0.8801 C   0  0  0  0  0  0  0  0  0  0  0  0
   -0.5144    0.4548    1.0051 N   0  0  0  0  0  0  0  0  0  0  0  0
   -1.2627   -0.2724    0.0599 O   0  0  0  0  0  0  0  0  0  0  0  0
   -2.6263   -0.1148    0.1994 C   0  0  0  0  0  0  0  0  0  0  0  0
   -3.1441    0.6411    0.9903 O   0  0  0  0  0  0  0  0  0  0  0  0
   -3.2476   -0.9077   -0.6741 N   0  0  0  0  0  0  0  0  0  0  0  0
   -4.6883   -0.9652   -0.7908 C   0  0  0  0  0  0  0  0  0  0  0  0
    3.3666    0.2735    0.1742 S   0  0  0  0  0  0  0  0  0  0  0  0
    3.3265    2.0387   -0.2569 C   0  0  0  0  0  0  0  0  0  0  0  0
    1.1240    1.1588   -1.7160 H   0  0  0  0  0  0  0  0  0  0  0  0
    1.9689   -0.3055   -2.2496 H   0  0  0  0  0  0  0  0  0  0  0  0
    0.2575   -0.3737   -1.8023 H   0  0  0  0  0  0  0  0  0  0  0  0
    1.9382   -1.9788    1.1149 H   0  0  0  0  0  0  0  0  0  0  0  0
    2.2075   -2.2571   -0.6092 H   0  0  0  0  0  0  0  0  0  0  0  0
    0.5539   -2.1182    0.0192 H   0  0  0  0  0  0  0  0  0  0  0  0
    1.2296    0.9938    1.6713 H   0  0  0  0  0  0  0  0  0  0  0  0
   -2.6940   -1.4980   -1.2757 H   0  0  0  0  0  0  0  0  0  0  0  0
   -5.1095   -0.2639   -0.0739 H   0  0  0  0  0  0  0  0  0  0  0  0
   -5.0429   -1.9703   -0.5672 H   0  0  0  0  0  0  0  0  0  0  0  0
   -4.9939   -0.6847   -1.7977 H   0  0  0  0  0  0  0  0  0  0  0  0
    2.4558    2.5049    0.1937 H   0  0  0  0  0  0  0  0  0  0  0  0
    3.3205    2.1553   -1.3359 H   0  0  0  0  0  0  0  0  0  0  0  0
    4.2339    2.4651    0.1570 H   0  0  0  0  0  0  0  0  0  0  0  0
  1  2  1  0  0  0  0
  2  3  1  0  0  0  0
  2  4  1  0  0  0  0
  4  5  2  0  0  0  0
  5  6  1  0  0  0  0
  6  7  1  0  0  0  0
  7  8  2  0  0  0  0
  7  9  4  0  0  0  0
  9 10  1  0  0  0  0
  2 11  1  0  0  0  0
 11 12  1  0  0  0  0
  1 13  1  0  0  0  0
  1 14  1  0  0  0  0
  1 15  1  0  0  0  0
  3 16  1  0  0  0  0
  3 17  1  0  0  0  0
  3 18  1  0  0  0  0
  4 19  1  0  0  0  0
  9 20  1  0  0  0  0
 10 21  1  0  0  0  0
 10 22  1  0  0  0  0
 10 23  1  0  0  0  0
 12 24  1  0  0  0  0
 12 25  1  0  0  0  0
 12 26  1  0  0  0  0
M  END
