 xtb: 6.7.1 (edcfbbe)
          04112516013D

 20 19  0     0  0            999 V2000
   -2.2118   -1.2422   -0.3352 C   0  0  0  0  0  0  0  0  0  0  0  0
   -2.6110    0.2102   -0.1033 C   0  0  0  0  0  0  0  0  0  0  0  0
   -1.6545    0.9588    0.8261 C   0  0  0  0  0  0  0  0  0  0  0  0
   -0.2569    1.1491    0.2498 C   0  0  0  0  0  0  0  0  0  0  0  0
    0.5050   -0.0518    0.4420 O   0  0  0  0  0  0  0  0  0  0  0  0
    1.6581   -0.1688   -0.2001 C   0  0  0  0  0  0  0  0  0  0  0  0
    2.0909    0.6843   -0.9503 O   0  0  0  0  0  0  0  0  0  0  0  0
    2.3459   -1.4622    0.1192 C   0  0  0  0  0  0  0  0  0  0  0  0
   -1.2576   -1.3059   -0.8512 H   0  0  0  0  0  0  0  0  0  0  0  0
   -2.1226   -1.7668    0.6129 H   0  0  0  0  0  0  0  0  0  0  0  0
   -2.9610   -1.7464   -0.9409 H   0  0  0  0  0  0  0  0  0  0  0  0
   -2.6606    0.7315   -1.0618 H   0  0  0  0  0  0  0  0  0  0  0  0
   -3.6077    0.2373    0.3408 H   0  0  0  0  0  0  0  0  0  0  0  0
   -2.0643    1.9479    1.0317 H   0  0  0  0  0  0  0  0  0  0  0  0
   -1.5619    0.4215    1.7706 H   0  0  0  0  0  0  0  0  0  0  0  0
   -0.2844    1.3812   -0.8202 H   0  0  0  0  0  0  0  0  0  0  0  0
    0.2698    1.9627    0.7597 H   0  0  0  0  0  0  0  0  0  0  0  0
    3.1801   -1.2536    0.7855 H   0  0  0  0  0  0  0  0  0  0  0  0
    2.7449   -1.8947   -0.7935 H   0  0  0  0  0  0  0  0  0  0  0  0
    1.6528   -2.1407    0.6042 H   0  0  0  0  0  0  0  0  0  0  0  0
  1  2  1  0  0  0  0
  2  3  1  0  0  0  0
  3  4  1  0  0  0  0
  4  5  1  0  0  0  0
  5  6  1  0  0  0  0
  6  7  2  0  0  0  0
  6  8  1  0  0  0  0
  1  9  1  0  0  0  0
  1 10  1  0  0  0  0
  1 11  1  0  0  0  0
  2 12  1  0  0  0  0
  2 13  1  0  0  0  0
  3 14  1  0  0  0  0
  3 15  1  0  0  0  0
  4 16  1  0  0  0  0
  4 17  1  0  0  0  0
  8 18  1  0  0  0  0
  8 19  1  0  0  0  0
  8 20  1  0  0  0  0
M  END
