 xtb: 6.7.1 (edcfbbe)
          04112516193D

 13 13  0     0  0            999 V2000
    1.9857    0.8830    1.1191 C   0  0  0  0  0  0  0  0  0  0  0  0
    1.8863   -0.2424    0.1558 C   0  0  0  0  0  0  0  0  0  0  0  0
    2.8176   -0.9150   -0.2239 O   0  0  0  0  0  0  0  0  0  0  0  0
    0.4874   -0.5448   -0.3726 C   0  0  0  0  0  0  0  0  0  0  0  0
   -0.4574    0.3669    0.1660 O   0  0  0  0  0  0  0  0  0  0  0  0
   -1.7614    0.1788   -0.1898 N   0  0  0  0  0  0  0  0  0  0  0  0
   -2.0052   -0.7294   -0.9199 O   0  0  0  0  0  0  0  0  0  0  0  0
   -2.5072    0.9696    0.2900 O   0  0  0  0  0  0  0  0  0  0  0  0
    1.6136    1.7908    0.6494 H   0  0  0  0  0  0  0  0  0  0  0  0
    1.3437    0.6833    1.9739 H   0  0  0  0  0  0  0  0  0  0  0  0
    3.0145    1.0150    1.4390 H   0  0  0  0  0  0  0  0  0  0  0  0
    0.2228   -1.5745   -0.1052 H   0  0  0  0  0  0  0  0  0  0  0  0
    0.4993   -0.4840   -1.4669 H   0  0  0  0  0  0  0  0  0  0  0  0
  1  2  1  0  0  0  0
  2  3  2  0  0  0  0
  2  4  1  0  0  0  0
  4  5  1  0  0  0  0
  5  6  1  0  0  0  0
  6  7  4  0  0  0  0
  6  8  4  0  0  0  0
  7  8  1  0  0  0  0
  1  9  1  0  0  0  0
  1 10  1  0  0  0  0
  1 11  1  0  0  0  0
  4 12  1  0  0  0  0
  4 13  1  0  0  0  0
M  END
