 xtb: 6.7.1 (edcfbbe)
          04112516273D

 20 19  0     0  0            999 V2000
    3.9827   -0.2644    0.1975 C   0  0  0  0  0  0  0  0  0  0  0  0
    2.6188   -0.1587   -0.4056 C   0  0  0  0  0  0  0  0  0  0  0  0
    2.1706   -0.8833   -1.2675 O   0  0  0  0  0  0  0  0  0  0  0  0
    1.9253    0.8529    0.1264 O   0  0  0  0  0  0  0  0  0  0  0  0
    0.5961    1.0733   -0.3365 C   0  0  0  0  0  0  0  0  0  0  0  0
   -0.3770    0.1101    0.3402 C   0  0  0  0  0  0  0  0  0  0  0  0
   -1.6958    0.4743   -0.0611 O   0  0  0  0  0  0  0  0  0  0  0  0
   -2.6969   -0.3115    0.3411 C   0  0  0  0  0  0  0  0  0  0  0  0
   -2.5203   -1.2974    1.0246 O   0  0  0  0  0  0  0  0  0  0  0  0
   -4.0201    0.1855   -0.1473 C   0  0  0  0  0  0  0  0  0  0  0  0
    4.7121   -0.4494   -0.5855 H   0  0  0  0  0  0  0  0  0  0  0  0
    3.9946   -1.1159    0.8745 H   0  0  0  0  0  0  0  0  0  0  0  0
    4.2160    0.6409    0.7467 H   0  0  0  0  0  0  0  0  0  0  0  0
    0.3560    2.1027   -0.0711 H   0  0  0  0  0  0  0  0  0  0  0  0
    0.5543    0.9355   -1.4211 H   0  0  0  0  0  0  0  0  0  0  0  0
   -0.2940    0.1776    1.4304 H   0  0  0  0  0  0  0  0  0  0  0  0
   -0.1757   -0.9243    0.0394 H   0  0  0  0  0  0  0  0  0  0  0  0
   -4.5431   -0.6253   -0.6470 H   0  0  0  0  0  0  0  0  0  0  0  0
   -3.8750    1.0240   -0.8190 H   0  0  0  0  0  0  0  0  0  0  0  0
   -4.6184    0.4881    0.7088 H   0  0  0  0  0  0  0  0  0  0  0  0
  1  2  1  0  0  0  0
  2  3  2  0  0  0  0
  2  4  1  0  0  0  0
  4  5  1  0  0  0  0
  5  6  1  0  0  0  0
  6  7  1  0  0  0  0
  7  8  1  0  0  0  0
  8  9  2  0  0  0  0
  8 10  1  0  0  0  0
  1 11  1  0  0  0  0
  1 12  1  0  0  0  0
  1 13  1  0  0  0  0
  5 14  1  0  0  0  0
  5 15  1  0  0  0  0
  6 16  1  0  0  0  0
  6 17  1  0  0  0  0
 10 18  1  0  0  0  0
 10 19  1  0  0  0  0
 10 20  1  0  0  0  0
M  END
