 xtb: 6.7.1 (edcfbbe)
          04112514053D

 17 16  0     0  0            999 V2000
    2.3336   -1.2828    0.1965 C   0  0  0  0  0  0  0  0  0  0  0  0
    2.2403    0.0936   -0.4508 C   0  0  0  0  0  0  0  0  0  0  0  0
    1.3308    1.0327    0.3531 C   0  0  0  0  0  0  0  0  0  0  0  0
   -0.0864    0.5825    0.4066 C   0  0  0  0  0  0  0  0  0  0  0  0
   -0.8324    0.2263   -0.6495 C   0  0  0  0  0  0  0  0  0  0  0  0
   -2.2087   -0.1954   -0.4923 C   0  0  0  0  0  0  0  0  0  0  0  0
   -2.8101   -0.2889    0.5634 O   0  0  0  0  0  0  0  0  0  0  0  0
    2.9870   -1.9315   -0.3814 H   0  0  0  0  0  0  0  0  0  0  0  0
    2.7330   -1.2048    1.2051 H   0  0  0  0  0  0  0  0  0  0  0  0
    1.3503   -1.7454    0.2528 H   0  0  0  0  0  0  0  0  0  0  0  0
    1.8639   -0.0067   -1.4685 H   0  0  0  0  0  0  0  0  0  0  0  0
    3.2359    0.5366   -0.5042 H   0  0  0  0  0  0  0  0  0  0  0  0
    1.3542    2.0209   -0.1147 H   0  0  0  0  0  0  0  0  0  0  0  0
    1.7229    1.1324    1.3653 H   0  0  0  0  0  0  0  0  0  0  0  0
   -0.5644    0.5465    1.3782 H   0  0  0  0  0  0  0  0  0  0  0  0
   -0.4448    0.2415   -1.6561 H   0  0  0  0  0  0  0  0  0  0  0  0
   -2.7260   -0.4479   -1.4360 H   0  0  0  0  0  0  0  0  0  0  0  0
  1  2  1  0  0  0  0
  2  3  1  0  0  0  0
  3  4  1  0  0  0  0
  4  5  2  0  0  0  0
  5  6  1  0  0  0  0
  6  7  2  0  0  0  0
  1  8  1  0  0  0  0
  1  9  1  0  0  0  0
  1 10  1  0  0  0  0
  2 11  1  0  0  0  0
  2 12  1  0  0  0  0
  3 13  1  0  0  0  0
  3 14  1  0  0  0  0
  4 15  1  0  0  0  0
  5 16  1  0  0  0  0
  6 17  1  0  0  0  0
M  END
