 xtb: 6.7.1 (edcfbbe)
          04112516113D

 17 16  0     0  0            999 V2000
   -3.8496   -1.1042    0.4235 C   0  0  0  0  0  0  0  0  0  0  0  0
   -3.5354    0.2009   -0.2993 C   0  0  0  0  0  0  0  0  0  0  0  0
   -2.2597    0.8779    0.2046 C   0  0  0  0  0  0  0  0  0  0  0  0
   -0.9971    0.0793   -0.1232 C   0  0  0  0  0  0  0  0  0  0  0  0
    0.2351    0.8528    0.3011 C   0  0  0  0  0  0  0  0  0  0  0  0
    1.8861   -0.1530   -0.0970 Br  0  0  0  0  0  0  0  0  0  0  0  0
   -3.8952   -0.9426    1.4981 H   0  0  0  0  0  0  0  0  0  0  0  0
   -3.0955   -1.8591    0.2185 H   0  0  0  0  0  0  0  0  0  0  0  0
   -4.8107   -1.4914    0.0949 H   0  0  0  0  0  0  0  0  0  0  0  0
   -3.4438    0.0105   -1.3705 H   0  0  0  0  0  0  0  0  0  0  0  0
   -4.3682    0.8921   -0.1561 H   0  0  0  0  0  0  0  0  0  0  0  0
   -2.1813    1.8654   -0.2559 H   0  0  0  0  0  0  0  0  0  0  0  0
   -2.3291    1.0187    1.2852 H   0  0  0  0  0  0  0  0  0  0  0  0
   -1.0160   -0.8808    0.3944 H   0  0  0  0  0  0  0  0  0  0  0  0
   -0.9557   -0.1162   -1.1971 H   0  0  0  0  0  0  0  0  0  0  0  0
    0.2544    1.0314    1.3749 H   0  0  0  0  0  0  0  0  0  0  0  0
    0.3314    1.7954   -0.2352 H   0  0  0  0  0  0  0  0  0  0  0  0
  1  2  1  0  0  0  0
  2  3  1  0  0  0  0
  3  4  1  0  0  0  0
  4  5  1  0  0  0  0
  5  6  1  0  0  0  0
  1  7  1  0  0  0  0
  1  8  1  0  0  0  0
  1  9  1  0  0  0  0
  2 10  1  0  0  0  0
  2 11  1  0  0  0  0
  3 12  1  0  0  0  0
  3 13  1  0  0  0  0
  4 14  1  0  0  0  0
  4 15  1  0  0  0  0
  5 16  1  0  0  0  0
  5 17  1  0  0  0  0
M  END
