 xtb: 6.7.1 (edcfbbe)
          04112514233D

 23 22  0     0  0            999 V2000
    2.8816    1.4351   -0.2063 C   0  0  0  0  0  0  0  0  0  0  0  0
    2.5814   -0.0587   -0.3152 C   0  0  0  0  0  0  0  0  0  0  0  0
    2.8312   -0.7537    1.0219 C   0  0  0  0  0  0  0  0  0  0  0  0
    1.1662   -0.3256   -0.8467 C   0  0  0  0  0  0  0  0  0  0  0  0
    0.0479    0.2037    0.0414 C   0  0  0  0  0  0  0  0  0  0  0  0
   -1.1996   -0.1100   -0.5976 O   0  0  0  0  0  0  0  0  0  0  0  0
   -2.3019   -0.1079    0.1399 C   0  0  0  0  0  0  0  0  0  0  0  0
   -2.3087    0.1555    1.3261 O   0  0  0  0  0  0  0  0  0  0  0  0
   -3.5116   -0.4731   -0.6666 C   0  0  0  0  0  0  0  0  0  0  0  0
    2.2951    1.8921    0.5867 H   0  0  0  0  0  0  0  0  0  0  0  0
    2.6583    1.9416   -1.1418 H   0  0  0  0  0  0  0  0  0  0  0  0
    3.9332    1.5872    0.0233 H   0  0  0  0  0  0  0  0  0  0  0  0
    3.2702   -0.4878   -1.0514 H   0  0  0  0  0  0  0  0  0  0  0  0
    3.8788   -0.6642    1.2983 H   0  0  0  0  0  0  0  0  0  0  0  0
    2.5828   -1.8102    0.9589 H   0  0  0  0  0  0  0  0  0  0  0  0
    2.2350   -0.3032    1.8114 H   0  0  0  0  0  0  0  0  0  0  0  0
    1.0243   -1.4015   -0.9650 H   0  0  0  0  0  0  0  0  0  0  0  0
    1.0581    0.1336   -1.8308 H   0  0  0  0  0  0  0  0  0  0  0  0
    0.0519   -0.2565    1.0339 H   0  0  0  0  0  0  0  0  0  0  0  0
    0.1022    1.2896    0.1594 H   0  0  0  0  0  0  0  0  0  0  0  0
   -3.9357   -1.3911   -0.2673 H   0  0  0  0  0  0  0  0  0  0  0  0
   -3.2354   -0.6062   -1.7067 H   0  0  0  0  0  0  0  0  0  0  0  0
   -4.2576    0.3103   -0.5637 H   0  0  0  0  0  0  0  0  0  0  0  0
  1  2  1  0  0  0  0
  2  3  1  0  0  0  0
  2  4  1  0  0  0  0
  4  5  1  0  0  0  0
  5  6  1  0  0  0  0
  6  7  1  0  0  0  0
  7  8  2  0  0  0  0
  7  9  1  0  0  0  0
  1 10  1  0  0  0  0
  1 11  1  0  0  0  0
  1 12  1  0  0  0  0
  2 13  1  0  0  0  0
  3 14  1  0  0  0  0
  3 15  1  0  0  0  0
  3 16  1  0  0  0  0
  4 17  1  0  0  0  0
  4 18  1  0  0  0  0
  5 19  1  0  0  0  0
  5 20  1  0  0  0  0
  9 21  1  0  0  0  0
  9 22  1  0  0  0  0
  9 23  1  0  0  0  0
M  END
