 xtb: 6.7.1 (edcfbbe)
          04112514373D

 14 13  0     0  0            999 V2000
    0.3613    0.8541    0.6733 C   0  0  0  0  0  0  0  0  0  0  0  0
   -0.3613    0.8541   -0.6732 C   0  0  0  0  0  0  0  0  0  0  0  0
   -1.8708    0.8500   -0.5200 C   0  0  0  0  0  0  0  0  0  0  0  0
   -2.4464   -0.6924    0.2168 Cl  0  0  0  0  0  0  0  0  0  0  0  0
    1.8708    0.8500    0.5200 C   0  0  0  0  0  0  0  0  0  0  0  0
    2.4464   -0.6924   -0.2168 Cl  0  0  0  0  0  0  0  0  0  0  0  0
    0.0501   -0.0168    1.2521 H   0  0  0  0  0  0  0  0  0  0  0  0
    0.0890    1.7502    1.2337 H   0  0  0  0  0  0  0  0  0  0  0  0
   -0.0501   -0.0168   -1.2521 H   0  0  0  0  0  0  0  0  0  0  0  0
   -0.0889    1.7502   -1.2337 H   0  0  0  0  0  0  0  0  0  0  0  0
   -2.2102    1.6437    0.1426 H   0  0  0  0  0  0  0  0  0  0  0  0
   -2.3691    0.9217   -1.4844 H   0  0  0  0  0  0  0  0  0  0  0  0
    2.2102    1.6437   -0.1426 H   0  0  0  0  0  0  0  0  0  0  0  0
    2.3691    0.9217    1.4844 H   0  0  0  0  0  0  0  0  0  0  0  0
  1  2  1  0  0  0  0
  2  3  1  0  0  0  0
  3  4  1  0  0  0  0
  1  5  1  0  0  0  0
  5  6  1  0  0  0  0
  1  7  1  0  0  0  0
  1  8  1  0  0  0  0
  2  9  1  0  0  0  0
  2 10  1  0  0  0  0
  3 11  1  0  0  0  0
  3 12  1  0  0  0  0
  5 13  1  0  0  0  0
  5 14  1  0  0  0  0
M  END
