 xtb: 6.7.1 (edcfbbe)
          04112514373D

 14 13  0     0  0            999 V2000
    0.7085    0.8313    0.2911 C   0  0  0  0  0  0  0  0  0  0  0  0
   -0.7085    0.8307   -0.2929 C   0  0  0  0  0  0  0  0  0  0  0  0
   -1.5451   -0.3258    0.2300 C   0  0  0  0  0  0  0  0  0  0  0  0
   -3.2335   -0.1959   -0.3824 Cl  0  0  0  0  0  0  0  0  0  0  0  0
    1.5449   -0.3268   -0.2286 C   0  0  0  0  0  0  0  0  0  0  0  0
    3.2333   -0.1956    0.3834 Cl  0  0  0  0  0  0  0  0  0  0  0  0
    0.6600    0.7863    1.3795 H   0  0  0  0  0  0  0  0  0  0  0  0
    1.1958    1.7668    0.0145 H   0  0  0  0  0  0  0  0  0  0  0  0
   -0.6599    0.7826   -1.3812 H   0  0  0  0  0  0  0  0  0  0  0  0
   -1.1955    1.7670   -0.0188 H   0  0  0  0  0  0  0  0  0  0  0  0
   -1.1780   -1.2898   -0.1138 H   0  0  0  0  0  0  0  0  0  0  0  0
   -1.6138   -0.3117    1.3162 H   0  0  0  0  0  0  0  0  0  0  0  0
    1.1776   -1.2897    0.1179 H   0  0  0  0  0  0  0  0  0  0  0  0
    1.6135   -0.3157   -1.3148 H   0  0  0  0  0  0  0  0  0  0  0  0
  1  2  1  0  0  0  0
  2  3  1  0  0  0  0
  3  4  1  0  0  0  0
  1  5  1  0  0  0  0
  5  6  1  0  0  0  0
  1  7  1  0  0  0  0
  1  8  1  0  0  0  0
  2  9  1  0  0  0  0
  2 10  1  0  0  0  0
  3 11  1  0  0  0  0
  3 12  1  0  0  0  0
  5 13  1  0  0  0  0
  5 14  1  0  0  0  0
M  END
