 xtb: 6.7.1 (edcfbbe)
          04112514233D

 23 22  0     0  0            999 V2000
    2.9658   -0.7855    0.8616 C   0  0  0  0  0  0  0  0  0  0  0  0
    2.3827    0.2861   -0.0583 C   0  0  0  0  0  0  0  0  0  0  0  0
    1.9465   -0.3252   -1.3869 C   0  0  0  0  0  0  0  0  0  0  0  0
    1.2444    1.0651    0.6183 C   0  0  0  0  0  0  0  0  0  0  0  0
   -0.0120    0.2593    0.9274 C   0  0  0  0  0  0  0  0  0  0  0  0
   -0.7985    0.1160   -0.2649 O   0  0  0  0  0  0  0  0  0  0  0  0
   -2.0976   -0.1095   -0.1378 C   0  0  0  0  0  0  0  0  0  0  0  0
   -2.6527   -0.2292    0.9371 O   0  0  0  0  0  0  0  0  0  0  0  0
   -2.7834   -0.1788   -1.4695 C   0  0  0  0  0  0  0  0  0  0  0  0
    3.8486   -1.2266    0.4057 H   0  0  0  0  0  0  0  0  0  0  0  0
    2.2488   -1.5828    1.0402 H   0  0  0  0  0  0  0  0  0  0  0  0
    3.2517   -0.3567    1.8190 H   0  0  0  0  0  0  0  0  0  0  0  0
    3.1743    1.0160   -0.2633 H   0  0  0  0  0  0  0  0  0  0  0  0
    2.7966   -0.7838   -1.8862 H   0  0  0  0  0  0  0  0  0  0  0  0
    1.5311    0.4379   -2.0400 H   0  0  0  0  0  0  0  0  0  0  0  0
    1.1887   -1.0878   -1.2291 H   0  0  0  0  0  0  0  0  0  0  0  0
    0.9544    1.9000   -0.0218 H   0  0  0  0  0  0  0  0  0  0  0  0
    1.6136    1.4730    1.5601 H   0  0  0  0  0  0  0  0  0  0  0  0
    0.2241   -0.7387    1.3060 H   0  0  0  0  0  0  0  0  0  0  0  0
   -0.6267    0.7681    1.6779 H   0  0  0  0  0  0  0  0  0  0  0  0
   -3.5440   -0.9532   -1.4467 H   0  0  0  0  0  0  0  0  0  0  0  0
   -2.0565   -0.3639   -2.2528 H   0  0  0  0  0  0  0  0  0  0  0  0
   -3.2749    0.7746   -1.6512 H   0  0  0  0  0  0  0  0  0  0  0  0
  1  2  1  0  0  0  0
  2  3  1  0  0  0  0
  2  4  1  0  0  0  0
  4  5  1  0  0  0  0
  5  6  1  0  0  0  0
  6  7  1  0  0  0  0
  7  8  2  0  0  0  0
  7  9  1  0  0  0  0
  1 10  1  0  0  0  0
  1 11  1  0  0  0  0
  1 12  1  0  0  0  0
  2 13  1  0  0  0  0
  3 14  1  0  0  0  0
  3 15  1  0  0  0  0
  3 16  1  0  0  0  0
  4 17  1  0  0  0  0
  4 18  1  0  0  0  0
  5 19  1  0  0  0  0
  5 20  1  0  0  0  0
  9 21  1  0  0  0  0
  9 22  1  0  0  0  0
  9 23  1  0  0  0  0
M  END
