 xtb: 6.7.1 (edcfbbe)
          04112514353D

 18 17  0     0  0            999 V2000
    2.1668    1.0066   -0.1361 C   0  0  0  0  0  0  0  0  0  0  0  0
    1.9096   -0.4904    0.0006 C   0  0  0  0  0  0  0  0  0  0  0  0
    0.5160   -0.7861    0.5577 C   0  0  0  0  0  0  0  0  0  0  0  0
   -0.5924   -0.5828   -0.4886 C   0  0  0  0  0  0  0  0  0  0  0  0
   -1.8829   -0.1962    0.1590 C   0  0  0  0  0  0  0  0  0  0  0  0
   -2.5145    0.9397   -0.0718 C   0  0  0  0  0  0  0  0  0  0  0  0
    1.4410    1.4699   -0.7996 H   0  0  0  0  0  0  0  0  0  0  0  0
    3.1601    1.1892   -0.5382 H   0  0  0  0  0  0  0  0  0  0  0  0
    2.0937    1.4907    0.8355 H   0  0  0  0  0  0  0  0  0  0  0  0
    2.0237   -0.9754   -0.9711 H   0  0  0  0  0  0  0  0  0  0  0  0
    2.6585   -0.9144    0.6730 H   0  0  0  0  0  0  0  0  0  0  0  0
    0.4793   -1.8130    0.9262 H   0  0  0  0  0  0  0  0  0  0  0  0
    0.3338   -0.1253    1.4085 H   0  0  0  0  0  0  0  0  0  0  0  0
   -0.3019    0.1970   -1.1931 H   0  0  0  0  0  0  0  0  0  0  0  0
   -0.7288   -1.5090   -1.0526 H   0  0  0  0  0  0  0  0  0  0  0  0
   -2.2768   -0.9048    0.8762 H   0  0  0  0  0  0  0  0  0  0  0  0
   -3.4336    1.1995    0.4249 H   0  0  0  0  0  0  0  0  0  0  0  0
   -2.1356    1.6607   -0.7783 H   0  0  0  0  0  0  0  0  0  0  0  0
  1  2  1  0  0  0  0
  2  3  1  0  0  0  0
  3  4  1  0  0  0  0
  4  5  1  0  0  0  0
  5  6  2  0  0  0  0
  1  7  1  0  0  0  0
  1  8  1  0  0  0  0
  1  9  1  0  0  0  0
  2 10  1  0  0  0  0
  2 11  1  0  0  0  0
  3 12  1  0  0  0  0
  3 13  1  0  0  0  0
  4 14  1  0  0  0  0
  4 15  1  0  0  0  0
  5 16  1  0  0  0  0
  6 17  1  0  0  0  0
  6 18  1  0  0  0  0
M  END
