 xtb: 6.7.1 (edcfbbe)
          04112516263D

 20 19  0     0  0            999 V2000
   -1.7298   -1.3523    0.3423 C   0  0  0  0  0  0  0  0  0  0  0  0
   -2.3766   -0.0210   -0.0200 C   0  0  0  0  0  0  0  0  0  0  0  0
   -1.4327    0.9327   -0.7520 C   0  0  0  0  0  0  0  0  0  0  0  0
   -0.2766    1.4314    0.1216 C   0  0  0  0  0  0  0  0  0  0  0  0
    0.8092    0.4134    0.3488 C   0  0  0  0  0  0  0  0  0  0  0  0
    1.3383    0.1981    1.4220 O   0  0  0  0  0  0  0  0  0  0  0  0
    1.1746   -0.1996   -0.7709 O   0  0  0  0  0  0  0  0  0  0  0  0
    2.2179   -1.1703   -0.6810 C   0  0  0  0  0  0  0  0  0  0  0  0
   -0.9222   -1.2116    1.0582 H   0  0  0  0  0  0  0  0  0  0  0  0
   -2.4622   -2.0182    0.7924 H   0  0  0  0  0  0  0  0  0  0  0  0
   -1.3258   -1.8337   -0.5458 H   0  0  0  0  0  0  0  0  0  0  0  0
   -3.2370   -0.2123   -0.6644 H   0  0  0  0  0  0  0  0  0  0  0  0
   -2.7430    0.4610    0.8889 H   0  0  0  0  0  0  0  0  0  0  0  0
   -2.0056    1.8015   -1.0790 H   0  0  0  0  0  0  0  0  0  0  0  0
   -1.0253    0.4416   -1.6363 H   0  0  0  0  0  0  0  0  0  0  0  0
   -0.6366    1.7623    1.0964 H   0  0  0  0  0  0  0  0  0  0  0  0
    0.2021    2.2785   -0.3750 H   0  0  0  0  0  0  0  0  0  0  0  0
    2.4378   -1.4610   -1.7033 H   0  0  0  0  0  0  0  0  0  0  0  0
    1.8797   -2.0267   -0.0959 H   0  0  0  0  0  0  0  0  0  0  0  0
    3.0939   -0.7357   -0.1978 H   0  0  0  0  0  0  0  0  0  0  0  0
  1  2  1  0  0  0  0
  2  3  1  0  0  0  0
  3  4  1  0  0  0  0
  4  5  1  0  0  0  0
  5  6  2  0  0  0  0
  5  7  1  0  0  0  0
  7  8  1  0  0  0  0
  1  9  1  0  0  0  0
  1 10  1  0  0  0  0
  1 11  1  0  0  0  0
  2 12  1  0  0  0  0
  2 13  1  0  0  0  0
  3 14  1  0  0  0  0
  3 15  1  0  0  0  0
  4 16  1  0  0  0  0
  4 17  1  0  0  0  0
  8 18  1  0  0  0  0
  8 19  1  0  0  0  0
  8 20  1  0  0  0  0
M  END
