 xtb: 6.7.1 (edcfbbe)
          04112517153D

 20 19  0     0  0            999 V2000
   -3.9357    0.2633   -0.0850 C   0  0  0  0  0  0  0  0  0  0  0  0
   -2.6919   -0.5316    0.2937 C   0  0  0  0  0  0  0  0  0  0  0  0
   -1.4137    0.2357   -0.0347 C   0  0  0  0  0  0  0  0  0  0  0  0
   -0.1651   -0.5522    0.3506 C   0  0  0  0  0  0  0  0  0  0  0  0
    1.1027    0.1804    0.0019 C   0  0  0  0  0  0  0  0  0  0  0  0
    1.1731    1.2131   -0.6288 O   0  0  0  0  0  0  0  0  0  0  0  0
    2.1737   -0.4546    0.4742 O   0  0  0  0  0  0  0  0  0  0  0  0
    3.4543    0.1235    0.2067 C   0  0  0  0  0  0  0  0  0  0  0  0
   -3.9634    1.2067    0.4550 H   0  0  0  0  0  0  0  0  0  0  0  0
   -3.9383    0.4806   -1.1506 H   0  0  0  0  0  0  0  0  0  0  0  0
   -4.8352   -0.2978    0.1547 H   0  0  0  0  0  0  0  0  0  0  0  0
   -2.7150   -0.7532    1.3625 H   0  0  0  0  0  0  0  0  0  0  0  0
   -2.6911   -1.4815   -0.2444 H   0  0  0  0  0  0  0  0  0  0  0  0
   -1.4108    1.1916    0.4930 H   0  0  0  0  0  0  0  0  0  0  0  0
   -1.3783    0.4587   -1.1029 H   0  0  0  0  0  0  0  0  0  0  0  0
   -0.1420   -1.5120   -0.1703 H   0  0  0  0  0  0  0  0  0  0  0  0
   -0.1480   -0.7648    1.4208 H   0  0  0  0  0  0  0  0  0  0  0  0
    3.5007    1.1330    0.6165 H   0  0  0  0  0  0  0  0  0  0  0  0
    3.6252    0.1695   -0.8694 H   0  0  0  0  0  0  0  0  0  0  0  0
    4.1754   -0.5283    0.6893 H   0  0  0  0  0  0  0  0  0  0  0  0
  1  2  1  0  0  0  0
  2  3  1  0  0  0  0
  3  4  1  0  0  0  0
  4  5  1  0  0  0  0
  5  6  2  0  0  0  0
  5  7  1  0  0  0  0
  7  8  1  0  0  0  0
  1  9  1  0  0  0  0
  1 10  1  0  0  0  0
  1 11  1  0  0  0  0
  2 12  1  0  0  0  0
  2 13  1  0  0  0  0
  3 14  1  0  0  0  0
  3 15  1  0  0  0  0
  4 16  1  0  0  0  0
  4 17  1  0  0  0  0
  8 18  1  0  0  0  0
  8 19  1  0  0  0  0
  8 20  1  0  0  0  0
M  END
