 xtb: 6.7.1 (edcfbbe)
          04112516093D

 19 18  0     0  0            999 V2000
    3.0813   -0.3813    0.3749 C   0  0  0  0  0  0  0  0  0  0  0  0
    1.6788    0.2046    0.4826 C   0  0  0  0  0  0  0  0  0  0  0  0
    0.9505    0.1753   -0.8599 C   0  0  0  0  0  0  0  0  0  0  0  0
   -0.4482    0.7820   -0.7623 C   0  0  0  0  0  0  0  0  0  0  0  0
   -1.4232   -0.0840   -0.0014 C   0  0  0  0  0  0  0  0  0  0  0  0
   -1.2597   -1.2769    0.1627 O   0  0  0  0  0  0  0  0  0  0  0  0
   -2.6256    0.6429    0.5290 C   0  0  0  0  0  0  0  0  0  0  0  0
    3.5832   -0.3511    1.3387 H   0  0  0  0  0  0  0  0  0  0  0  0
    3.0349   -1.4164    0.0441 H   0  0  0  0  0  0  0  0  0  0  0  0
    3.6752    0.1819   -0.3416 H   0  0  0  0  0  0  0  0  0  0  0  0
    1.7437    1.2358    0.8380 H   0  0  0  0  0  0  0  0  0  0  0  0
    1.1019   -0.3673    1.2132 H   0  0  0  0  0  0  0  0  0  0  0  0
    0.8631   -0.8600   -1.1966 H   0  0  0  0  0  0  0  0  0  0  0  0
    1.5340    0.7267   -1.5991 H   0  0  0  0  0  0  0  0  0  0  0  0
   -0.4096    1.7711   -0.3052 H   0  0  0  0  0  0  0  0  0  0  0  0
   -0.8666    0.8981   -1.7658 H   0  0  0  0  0  0  0  0  0  0  0  0
   -3.0141    1.3314   -0.2151 H   0  0  0  0  0  0  0  0  0  0  0  0
   -3.3928   -0.0645    0.8316 H   0  0  0  0  0  0  0  0  0  0  0  0
   -2.3192    1.2213    1.3985 H   0  0  0  0  0  0  0  0  0  0  0  0
  1  2  1  0  0  0  0
  2  3  1  0  0  0  0
  3  4  1  0  0  0  0
  4  5  1  0  0  0  0
  5  6  2  0  0  0  0
  5  7  1  0  0  0  0
  1  8  1  0  0  0  0
  1  9  1  0  0  0  0
  1 10  1  0  0  0  0
  2 11  1  0  0  0  0
  2 12  1  0  0  0  0
  3 13  1  0  0  0  0
  3 14  1  0  0  0  0
  4 15  1  0  0  0  0
  4 16  1  0  0  0  0
  7 17  1  0  0  0  0
  7 18  1  0  0  0  0
  7 19  1  0  0  0  0
M  END
