 xtb: 6.7.1 (edcfbbe)
          04112518233D

 26 25  0     0  0            999 V2000
    1.5559   -0.2692   -1.6912 C   0  0  0  0  0  0  0  0  0  0  0  0
    1.8898   -0.6652   -0.2646 C   0  0  0  0  0  0  0  0  0  0  0  0
    2.9304   -1.7824   -0.2417 C   0  0  0  0  0  0  0  0  0  0  0  0
    0.7575   -1.0040    0.6408 C   0  0  0  0  0  0  0  0  0  0  0  0
   -0.4772   -0.7271    0.6476 N   0  0  0  0  0  0  0  0  0  0  0  0
   -1.0060    0.0124   -0.4412 O   0  0  0  0  0  0  0  0  0  0  0  0
   -2.3642    0.1864   -0.4131 C   0  0  0  0  0  0  0  0  0  0  0  0
   -2.8482    0.8405   -1.3199 O   0  0  0  0  0  0  0  0  0  0  0  0
   -3.0104   -0.3747    0.5997 N   0  0  0  0  0  0  0  0  0  0  0  0
   -4.4419   -0.2819    0.7712 C   0  0  0  0  0  0  0  0  0  0  0  0
    2.6736    0.7529    0.6783 S   0  0  0  0  0  0  0  0  0  0  0  0
    1.5521    2.1455    0.3821 C   0  0  0  0  0  0  0  0  0  0  0  0
    1.1269   -1.1248   -2.2102 H   0  0  0  0  0  0  0  0  0  0  0  0
    0.8360    0.5427   -1.7387 H   0  0  0  0  0  0  0  0  0  0  0  0
    2.4654    0.0322   -2.2060 H   0  0  0  0  0  0  0  0  0  0  0  0
    2.5123   -2.6839   -0.6834 H   0  0  0  0  0  0  0  0  0  0  0  0
    3.2440   -1.9952    0.7770 H   0  0  0  0  0  0  0  0  0  0  0  0
    3.8040   -1.4811   -0.8131 H   0  0  0  0  0  0  0  0  0  0  0  0
    1.0416   -1.5503    1.5328 H   0  0  0  0  0  0  0  0  0  0  0  0
   -2.4595   -0.8814    1.2817 H   0  0  0  0  0  0  0  0  0  0  0  0
   -4.8445    0.2941   -0.0597 H   0  0  0  0  0  0  0  0  0  0  0  0
   -4.6739    0.2206    1.7091 H   0  0  0  0  0  0  0  0  0  0  0  0
   -4.8817   -1.2780    0.7717 H   0  0  0  0  0  0  0  0  0  0  0  0
    1.6781    2.5150   -0.6307 H   0  0  0  0  0  0  0  0  0  0  0  0
    1.8371    2.9095    1.0978 H   0  0  0  0  0  0  0  0  0  0  0  0
    0.5262    1.8394    0.5576 H   0  0  0  0  0  0  0  0  0  0  0  0
  1  2  1  0  0  0  0
  2  3  1  0  0  0  0
  2  4  1  0  0  0  0
  4  5  2  0  0  0  0
  5  6  1  0  0  0  0
  6  7  1  0  0  0  0
  7  8  2  0  0  0  0
  7  9  4  0  0  0  0
  9 10  1  0  0  0  0
  2 11  1  0  0  0  0
 11 12  1  0  0  0  0
  1 13  1  0  0  0  0
  1 14  1  0  0  0  0
  1 15  1  0  0  0  0
  3 16  1  0  0  0  0
  3 17  1  0  0  0  0
  3 18  1  0  0  0  0
  4 19  1  0  0  0  0
  9 20  1  0  0  0  0
 10 21  1  0  0  0  0
 10 22  1  0  0  0  0
 10 23  1  0  0  0  0
 12 24  1  0  0  0  0
 12 25  1  0  0  0  0
 12 26  1  0  0  0  0
M  END
