 xtb: 6.7.1 (edcfbbe)
          04112516153D

 26 25  0     0  0            999 V2000
    1.3026    1.3959   -0.9396 C   0  0  0  0  0  0  0  0  0  0  0  0
    1.5370    0.1727   -0.0562 C   0  0  0  0  0  0  0  0  0  0  0  0
    1.5916   -1.1149   -0.8757 C   0  0  0  0  0  0  0  0  0  0  0  0
    0.4653    0.0765    0.9912 C   0  0  0  0  0  0  0  0  0  0  0  0
   -0.7795   -0.0739    0.8608 N   0  0  0  0  0  0  0  0  0  0  0  0
   -1.2840   -0.1713   -0.4538 O   0  0  0  0  0  0  0  0  0  0  0  0
   -2.6459   -0.3330   -0.5443 C   0  0  0  0  0  0  0  0  0  0  0  0
   -3.1072   -0.4224   -1.6675 O   0  0  0  0  0  0  0  0  0  0  0  0
   -3.3104   -0.3734    0.6008 N   0  0  0  0  0  0  0  0  0  0  0  0
   -4.7439   -0.5388    0.6755 C   0  0  0  0  0  0  0  0  0  0  0  0
    3.1083    0.3735    0.9227 S   0  0  0  0  0  0  0  0  0  0  0  0
    4.3837    0.5900   -0.3500 C   0  0  0  0  0  0  0  0  0  0  0  0
    0.3233    1.3254   -1.4088 H   0  0  0  0  0  0  0  0  0  0  0  0
    1.3457    2.3058   -0.3445 H   0  0  0  0  0  0  0  0  0  0  0  0
    2.0523    1.4450   -1.7249 H   0  0  0  0  0  0  0  0  0  0  0  0
    2.3548   -1.0415   -1.6461 H   0  0  0  0  0  0  0  0  0  0  0  0
    0.6327   -1.2816   -1.3622 H   0  0  0  0  0  0  0  0  0  0  0  0
    1.8156   -1.9627   -0.2316 H   0  0  0  0  0  0  0  0  0  0  0  0
    0.7720    0.1429    2.0276 H   0  0  0  0  0  0  0  0  0  0  0  0
   -2.7757   -0.2854    1.4561 H   0  0  0  0  0  0  0  0  0  0  0  0
   -4.9858   -1.4462    1.2267 H   0  0  0  0  0  0  0  0  0  0  0  0
   -5.1289   -0.6155   -0.3394 H   0  0  0  0  0  0  0  0  0  0  0  0
   -5.1923    0.3205    1.1716 H   0  0  0  0  0  0  0  0  0  0  0  0
    5.3208    0.6488    0.1937 H   0  0  0  0  0  0  0  0  0  0  0  0
    4.2133    1.5133   -0.8937 H   0  0  0  0  0  0  0  0  0  0  0  0
    4.3960   -0.2680   -1.0139 H   0  0  0  0  0  0  0  0  0  0  0  0
  1  2  1  0  0  0  0
  2  3  1  0  0  0  0
  2  4  1  0  0  0  0
  4  5  2  0  0  0  0
  5  6  1  0  0  0  0
  6  7  1  0  0  0  0
  7  8  2  0  0  0  0
  7  9  4  0  0  0  0
  9 10  1  0  0  0  0
  2 11  1  0  0  0  0
 11 12  1  0  0  0  0
  1 13  1  0  0  0  0
  1 14  1  0  0  0  0
  1 15  1  0  0  0  0
  3 16  1  0  0  0  0
  3 17  1  0  0  0  0
  3 18  1  0  0  0  0
  4 19  1  0  0  0  0
  9 20  1  0  0  0  0
 10 21  1  0  0  0  0
 10 22  1  0  0  0  0
 10 23  1  0  0  0  0
 12 24  1  0  0  0  0
 12 25  1  0  0  0  0
 12 26  1  0  0  0  0
M  END
