 xtb: 6.7.1 (edcfbbe)
          04112514243D

 14 13  0     0  0            999 V2000
    0.7640    1.7005    0.0470 C   0  0  0  0  0  0  0  0  0  0  0  0
   -0.7639    1.7005   -0.0469 C   0  0  0  0  0  0  0  0  0  0  0  0
   -1.3630    0.5251   -0.8048 C   0  0  0  0  0  0  0  0  0  0  0  0
   -1.6289   -0.9048    0.2610 Cl  0  0  0  0  0  0  0  0  0  0  0  0
    1.3630    0.5251    0.8048 C   0  0  0  0  0  0  0  0  0  0  0  0
    1.6289   -0.9048   -0.2610 Cl  0  0  0  0  0  0  0  0  0  0  0  0
    1.0620    2.6093    0.5723 H   0  0  0  0  0  0  0  0  0  0  0  0
    1.1947    1.7377   -0.9542 H   0  0  0  0  0  0  0  0  0  0  0  0
   -1.0620    2.6093   -0.5722 H   0  0  0  0  0  0  0  0  0  0  0  0
   -1.1947    1.7376    0.9542 H   0  0  0  0  0  0  0  0  0  0  0  0
   -2.3483    0.7701   -1.1959 H   0  0  0  0  0  0  0  0  0  0  0  0
   -0.7126    0.1871   -1.6095 H   0  0  0  0  0  0  0  0  0  0  0  0
    2.3483    0.7701    1.1959 H   0  0  0  0  0  0  0  0  0  0  0  0
    0.7127    0.1871    1.6095 H   0  0  0  0  0  0  0  0  0  0  0  0
  1  2  1  0  0  0  0
  2  3  1  0  0  0  0
  3  4  1  0  0  0  0
  1  5  1  0  0  0  0
  5  6  1  0  0  0  0
  1  7  1  0  0  0  0
  1  8  1  0  0  0  0
  2  9  1  0  0  0  0
  2 10  1  0  0  0  0
  3 11  1  0  0  0  0
  3 12  1  0  0  0  0
  5 13  1  0  0  0  0
  5 14  1  0  0  0  0
M  END
