 xtb: 6.7.1 (edcfbbe)
          04112516273D

 20 19  0     0  0            999 V2000
    2.9535   -1.1307    0.4150 C   0  0  0  0  0  0  0  0  0  0  0  0
    1.7407   -0.4785   -0.1710 C   0  0  0  0  0  0  0  0  0  0  0  0
    0.9037   -1.0364   -0.8486 O   0  0  0  0  0  0  0  0  0  0  0  0
    1.6923    0.8176    0.1413 O   0  0  0  0  0  0  0  0  0  0  0  0
    0.5761    1.5901   -0.3026 C   0  0  0  0  0  0  0  0  0  0  0  0
   -0.5539    1.5639    0.7265 C   0  0  0  0  0  0  0  0  0  0  0  0
   -1.0722    0.2427    0.9045 O   0  0  0  0  0  0  0  0  0  0  0  0
   -1.8692   -0.2492   -0.0484 C   0  0  0  0  0  0  0  0  0  0  0  0
   -2.2209    0.3986   -1.0101 O   0  0  0  0  0  0  0  0  0  0  0  0
   -2.2601   -1.6630    0.2416 C   0  0  0  0  0  0  0  0  0  0  0  0
    2.8513   -1.1514    1.4972 H   0  0  0  0  0  0  0  0  0  0  0  0
    3.8334   -0.5432    0.1703 H   0  0  0  0  0  0  0  0  0  0  0  0
    3.0459   -2.1416    0.0324 H   0  0  0  0  0  0  0  0  0  0  0  0
    0.9461    2.6081   -0.4191 H   0  0  0  0  0  0  0  0  0  0  0  0
    0.2168    1.1964   -1.2589 H   0  0  0  0  0  0  0  0  0  0  0  0
   -1.3547    2.2275    0.3884 H   0  0  0  0  0  0  0  0  0  0  0  0
   -0.1871    1.8540    1.7109 H   0  0  0  0  0  0  0  0  0  0  0  0
   -3.0196   -1.9847   -0.4625 H   0  0  0  0  0  0  0  0  0  0  0  0
   -2.6141   -1.7451    1.2645 H   0  0  0  0  0  0  0  0  0  0  0  0
   -1.3720   -2.2823    0.1320 H   0  0  0  0  0  0  0  0  0  0  0  0
  1  2  1  0  0  0  0
  2  3  2  0  0  0  0
  2  4  1  0  0  0  0
  4  5  1  0  0  0  0
  5  6  1  0  0  0  0
  6  7  1  0  0  0  0
  7  8  1  0  0  0  0
  8  9  2  0  0  0  0
  8 10  1  0  0  0  0
  1 11  1  0  0  0  0
  1 12  1  0  0  0  0
  1 13  1  0  0  0  0
  5 14  1  0  0  0  0
  5 15  1  0  0  0  0
  6 16  1  0  0  0  0
  6 17  1  0  0  0  0
 10 18  1  0  0  0  0
 10 19  1  0  0  0  0
 10 20  1  0  0  0  0
M  END
