 xtb: 6.7.1 (edcfbbe)
          04112516093D

 19 18  0     0  0            999 V2000
    2.8287    0.7698    0.6339 C   0  0  0  0  0  0  0  0  0  0  0  0
    2.2819   -0.1172   -0.4790 C   0  0  0  0  0  0  0  0  0  0  0  0
    0.7848    0.0769   -0.7218 C   0  0  0  0  0  0  0  0  0  0  0  0
   -0.0697   -0.4117    0.4578 C   0  0  0  0  0  0  0  0  0  0  0  0
   -1.5300   -0.2726    0.1203 C   0  0  0  0  0  0  0  0  0  0  0  0
   -2.2218   -1.2357   -0.1559 O   0  0  0  0  0  0  0  0  0  0  0  0
   -2.0796    1.1249    0.1203 C   0  0  0  0  0  0  0  0  0  0  0  0
    2.6060    1.8149    0.4317 H   0  0  0  0  0  0  0  0  0  0  0  0
    2.3997    0.5020    1.5956 H   0  0  0  0  0  0  0  0  0  0  0  0
    3.9076    0.6576    0.7045 H   0  0  0  0  0  0  0  0  0  0  0  0
    2.4774   -1.1646   -0.2406 H   0  0  0  0  0  0  0  0  0  0  0  0
    2.8090    0.1142   -1.4069 H   0  0  0  0  0  0  0  0  0  0  0  0
    0.4943   -0.4831   -1.6138 H   0  0  0  0  0  0  0  0  0  0  0  0
    0.5850    1.1329   -0.9088 H   0  0  0  0  0  0  0  0  0  0  0  0
    0.1527   -1.4616    0.6554 H   0  0  0  0  0  0  0  0  0  0  0  0
    0.1502    0.1819    1.3445 H   0  0  0  0  0  0  0  0  0  0  0  0
   -1.3287    1.8572    0.3927 H   0  0  0  0  0  0  0  0  0  0  0  0
   -2.4819    1.3490   -0.8656 H   0  0  0  0  0  0  0  0  0  0  0  0
   -2.9121    1.1713    0.8196 H   0  0  0  0  0  0  0  0  0  0  0  0
  1  2  1  0  0  0  0
  2  3  1  0  0  0  0
  3  4  1  0  0  0  0
  4  5  1  0  0  0  0
  5  6  2  0  0  0  0
  5  7  1  0  0  0  0
  1  8  1  0  0  0  0
  1  9  1  0  0  0  0
  1 10  1  0  0  0  0
  2 11  1  0  0  0  0
  2 12  1  0  0  0  0
  3 13  1  0  0  0  0
  3 14  1  0  0  0  0
  4 15  1  0  0  0  0
  4 16  1  0  0  0  0
  7 17  1  0  0  0  0
  7 18  1  0  0  0  0
  7 19  1  0  0  0  0
M  END
