 xtb: 6.7.1 (edcfbbe)
          04112516153D

 26 25  0     0  0            999 V2000
    2.9874   -0.2659   -0.9101 C   0  0  0  0  0  0  0  0  0  0  0  0
    1.6278   -0.4698   -0.2398 C   0  0  0  0  0  0  0  0  0  0  0  0
    1.7776   -1.1440    1.1242 C   0  0  0  0  0  0  0  0  0  0  0  0
    0.8238   -1.3888   -1.1151 C   0  0  0  0  0  0  0  0  0  0  0  0
   -0.3566   -1.4167   -1.5506 N   0  0  0  0  0  0  0  0  0  0  0  0
   -1.2614   -0.3863   -1.2135 O   0  0  0  0  0  0  0  0  0  0  0  0
   -1.7265   -0.3470    0.0728 C   0  0  0  0  0  0  0  0  0  0  0  0
   -1.3765   -1.1247    0.9402 O   0  0  0  0  0  0  0  0  0  0  0  0
   -2.6279    0.6255    0.1870 N   0  0  0  0  0  0  0  0  0  0  0  0
   -3.2482    0.9748    1.4451 C   0  0  0  0  0  0  0  0  0  0  0  0
    0.7803    1.1767   -0.0804 S   0  0  0  0  0  0  0  0  0  0  0  0
    1.8399    2.0713    1.0960 C   0  0  0  0  0  0  0  0  0  0  0  0
    2.8642    0.2392   -1.8657 H   0  0  0  0  0  0  0  0  0  0  0  0
    3.6350    0.3335   -0.2762 H   0  0  0  0  0  0  0  0  0  0  0  0
    3.4689   -1.2265   -1.0762 H   0  0  0  0  0  0  0  0  0  0  0  0
    0.8029   -1.2529    1.5975 H   0  0  0  0  0  0  0  0  0  0  0  0
    2.4297   -0.5594    1.7670 H   0  0  0  0  0  0  0  0  0  0  0  0
    2.2119   -2.1329    0.9962 H   0  0  0  0  0  0  0  0  0  0  0  0
    1.3875   -2.2441   -1.4735 H   0  0  0  0  0  0  0  0  0  0  0  0
   -2.7761    1.2216   -0.6130 H   0  0  0  0  0  0  0  0  0  0  0  0
   -4.3309    0.9775    1.3346 H   0  0  0  0  0  0  0  0  0  0  0  0
   -2.9094    1.9570    1.7741 H   0  0  0  0  0  0  0  0  0  0  0  0
   -2.9583    0.2269    2.1801 H   0  0  0  0  0  0  0  0  0  0  0  0
    2.8610    2.1170    0.7351 H   0  0  0  0  0  0  0  0  0  0  0  0
    1.7796    1.6077    2.0749 H   0  0  0  0  0  0  0  0  0  0  0  0
    1.4195    3.0706    1.1348 H   0  0  0  0  0  0  0  0  0  0  0  0
  1  2  1  0  0  0  0
  2  3  1  0  0  0  0
  2  4  1  0  0  0  0
  4  5  2  0  0  0  0
  5  6  1  0  0  0  0
  6  7  1  0  0  0  0
  7  8  2  0  0  0  0
  7  9  4  0  0  0  0
  9 10  1  0  0  0  0
  2 11  1  0  0  0  0
 11 12  1  0  0  0  0
  1 13  1  0  0  0  0
  1 14  1  0  0  0  0
  1 15  1  0  0  0  0
  3 16  1  0  0  0  0
  3 17  1  0  0  0  0
  3 18  1  0  0  0  0
  4 19  1  0  0  0  0
  9 20  1  0  0  0  0
 10 21  1  0  0  0  0
 10 22  1  0  0  0  0
 10 23  1  0  0  0  0
 12 24  1  0  0  0  0
 12 25  1  0  0  0  0
 12 26  1  0  0  0  0
M  END
