 xtb: 6.7.1 (edcfbbe)
          04112516293D

 20 19  0     0  0            999 V2000
   -3.3825   -0.1874   -0.8075 C   0  0  0  0  0  0  0  0  0  0  0  0
   -2.8485    0.4430    0.4741 C   0  0  0  0  0  0  0  0  0  0  0  0
   -1.5005   -0.1311    0.9095 C   0  0  0  0  0  0  0  0  0  0  0  0
   -0.3801    0.2063   -0.0640 C   0  0  0  0  0  0  0  0  0  0  0  0
    0.8569   -0.2379    0.5123 O   0  0  0  0  0  0  0  0  0  0  0  0
    1.9652   -0.0696   -0.1987 C   0  0  0  0  0  0  0  0  0  0  0  0
    1.9708    0.4290   -1.3064 O   0  0  0  0  0  0  0  0  0  0  0  0
    3.1780   -0.5508    0.5379 C   0  0  0  0  0  0  0  0  0  0  0  0
   -4.3801    0.1875   -1.0213 H   0  0  0  0  0  0  0  0  0  0  0  0
   -2.7443    0.0484   -1.6549 H   0  0  0  0  0  0  0  0  0  0  0  0
   -3.4371   -1.2686   -0.7056 H   0  0  0  0  0  0  0  0  0  0  0  0
   -2.7540    1.5218    0.3366 H   0  0  0  0  0  0  0  0  0  0  0  0
   -3.5659    0.2714    1.2781 H   0  0  0  0  0  0  0  0  0  0  0  0
   -1.2293    0.2752    1.8851 H   0  0  0  0  0  0  0  0  0  0  0  0
   -1.5705   -1.2154    1.0045 H   0  0  0  0  0  0  0  0  0  0  0  0
   -0.5070   -0.2904   -1.0306 H   0  0  0  0  0  0  0  0  0  0  0  0
   -0.3155    1.2856   -0.2412 H   0  0  0  0  0  0  0  0  0  0  0  0
    2.8984   -1.3249    1.2444 H   0  0  0  0  0  0  0  0  0  0  0  0
    3.6024    0.2896    1.0835 H   0  0  0  0  0  0  0  0  0  0  0  0
    3.9171   -0.9094   -0.1715 H   0  0  0  0  0  0  0  0  0  0  0  0
  1  2  1  0  0  0  0
  2  3  1  0  0  0  0
  3  4  1  0  0  0  0
  4  5  1  0  0  0  0
  5  6  1  0  0  0  0
  6  7  2  0  0  0  0
  6  8  1  0  0  0  0
  1  9  1  0  0  0  0
  1 10  1  0  0  0  0
  1 11  1  0  0  0  0
  2 12  1  0  0  0  0
  2 13  1  0  0  0  0
  3 14  1  0  0  0  0
  3 15  1  0  0  0  0
  4 16  1  0  0  0  0
  4 17  1  0  0  0  0
  8 18  1  0  0  0  0
  8 19  1  0  0  0  0
  8 20  1  0  0  0  0
M  END
