 xtb: 6.7.1 (edcfbbe)
          04112514343D

 17 16  0     0  0            999 V2000
   -2.1035   -1.2955    0.8073 C   0  0  0  0  0  0  0  0  0  0  0  0
   -1.8768   -0.4474   -0.4415 C   0  0  0  0  0  0  0  0  0  0  0  0
   -2.3964    0.9744   -0.2445 C   0  0  0  0  0  0  0  0  0  0  0  0
   -0.3928   -0.4272   -0.8111 C   0  0  0  0  0  0  0  0  0  0  0  0
    0.3258    0.1681    0.2751 O   0  0  0  0  0  0  0  0  0  0  0  0
    1.6572    0.2736    0.1372 N   0  0  0  0  0  0  0  0  0  0  0  0
    2.1501   -0.1319   -0.8733 O   0  0  0  0  0  0  0  0  0  0  0  0
    2.2099    0.7758    1.0691 O   0  0  0  0  0  0  0  0  0  0  0  0
   -1.5693   -0.8688    1.6522 H   0  0  0  0  0  0  0  0  0  0  0  0
   -1.7537   -2.3127    0.6507 H   0  0  0  0  0  0  0  0  0  0  0  0
   -3.1618   -1.3290    1.0488 H   0  0  0  0  0  0  0  0  0  0  0  0
   -2.3992   -0.9061   -1.2860 H   0  0  0  0  0  0  0  0  0  0  0  0
   -3.4564    0.9553   -0.0094 H   0  0  0  0  0  0  0  0  0  0  0  0
   -2.2542    1.5647   -1.1461 H   0  0  0  0  0  0  0  0  0  0  0  0
   -1.8689    1.4560    0.5748 H   0  0  0  0  0  0  0  0  0  0  0  0
   -0.0112   -1.4397   -0.9737 H   0  0  0  0  0  0  0  0  0  0  0  0
   -0.2177    0.1631   -1.7156 H   0  0  0  0  0  0  0  0  0  0  0  0
  1  2  1  0  0  0  0
  2  3  1  0  0  0  0
  2  4  1  0  0  0  0
  4  5  1  0  0  0  0
  5  6  1  0  0  0  0
  6  7  4  0  0  0  0
  6  8  4  0  0  0  0
  1  9  1  0  0  0  0
  1 10  1  0  0  0  0
  1 11  1  0  0  0  0
  2 12  1  0  0  0  0
  3 13  1  0  0  0  0
  3 14  1  0  0  0  0
  3 15  1  0  0  0  0
  4 16  1  0  0  0  0
  4 17  1  0  0  0  0
M  END
