 xtb: 6.7.1 (edcfbbe)
          04112516293D

 20 19  0     0  0            999 V2000
   -3.1493   -0.4382   -0.8017 C   0  0  0  0  0  0  0  0  0  0  0  0
   -2.7132    0.5618    0.2633 C   0  0  0  0  0  0  0  0  0  0  0  0
   -1.2047    0.8064    0.2748 C   0  0  0  0  0  0  0  0  0  0  0  0
   -0.4121   -0.4329    0.6837 C   0  0  0  0  0  0  0  0  0  0  0  0
    0.9707   -0.1100    0.8876 O   0  0  0  0  0  0  0  0  0  0  0  0
    1.7871   -0.1297   -0.1615 C   0  0  0  0  0  0  0  0  0  0  0  0
    1.4277   -0.4157   -1.2849 O   0  0  0  0  0  0  0  0  0  0  0  0
    3.1919    0.2167    0.2307 C   0  0  0  0  0  0  0  0  0  0  0  0
   -2.7713   -1.4332   -0.5834 H   0  0  0  0  0  0  0  0  0  0  0  0
   -4.2342   -0.4894   -0.8458 H   0  0  0  0  0  0  0  0  0  0  0  0
   -2.7791   -0.1375   -1.7791 H   0  0  0  0  0  0  0  0  0  0  0  0
   -3.2084    1.5162    0.0766 H   0  0  0  0  0  0  0  0  0  0  0  0
   -3.0286    0.2089    1.2468 H   0  0  0  0  0  0  0  0  0  0  0  0
   -0.8730    1.1230   -0.7170 H   0  0  0  0  0  0  0  0  0  0  0  0
   -0.9719    1.6054    0.9819 H   0  0  0  0  0  0  0  0  0  0  0  0
   -0.7551   -0.8174    1.6452 H   0  0  0  0  0  0  0  0  0  0  0  0
   -0.4785   -1.2089   -0.0837 H   0  0  0  0  0  0  0  0  0  0  0  0
    3.1816    1.0039    0.9776 H   0  0  0  0  0  0  0  0  0  0  0  0
    3.7536    0.5153   -0.6483 H   0  0  0  0  0  0  0  0  0  0  0  0
    3.6546   -0.6658    0.6673 H   0  0  0  0  0  0  0  0  0  0  0  0
  1  2  1  0  0  0  0
  2  3  1  0  0  0  0
  3  4  1  0  0  0  0
  4  5  1  0  0  0  0
  5  6  1  0  0  0  0
  6  7  2  0  0  0  0
  6  8  1  0  0  0  0
  1  9  1  0  0  0  0
  1 10  1  0  0  0  0
  1 11  1  0  0  0  0
  2 12  1  0  0  0  0
  2 13  1  0  0  0  0
  3 14  1  0  0  0  0
  3 15  1  0  0  0  0
  4 16  1  0  0  0  0
  4 17  1  0  0  0  0
  8 18  1  0  0  0  0
  8 19  1  0  0  0  0
  8 20  1  0  0  0  0
M  END
