 xtb: 6.7.1 (edcfbbe)
          04112514273D

 16 15  0     0  0            999 V2000
   -2.7068   -0.6803    0.0971 C   0  0  0  0  0  0  0  0  0  0  0  0
   -1.4267   -0.3515   -0.3991 O   0  0  0  0  0  0  0  0  0  0  0  0
   -0.7649    0.6209    0.3832 C   0  0  0  0  0  0  0  0  0  0  0  0
    0.6406    0.8243   -0.1666 C   0  0  0  0  0  0  0  0  0  0  0  0
    1.4752   -0.2085    0.3154 O   0  0  0  0  0  0  0  0  0  0  0  0
    2.7792   -0.1600   -0.2230 C   0  0  0  0  0  0  0  0  0  0  0  0
   -3.1144   -1.4225   -0.5841 H   0  0  0  0  0  0  0  0  0  0  0  0
   -3.3552    0.2027    0.1177 H   0  0  0  0  0  0  0  0  0  0  0  0
   -2.6391   -1.0993    1.1067 H   0  0  0  0  0  0  0  0  0  0  0  0
   -1.3207    1.5689    0.3470 H   0  0  0  0  0  0  0  0  0  0  0  0
   -0.6947    0.2846    1.4266 H   0  0  0  0  0  0  0  0  0  0  0  0
    1.0306    1.7998    0.1576 H   0  0  0  0  0  0  0  0  0  0  0  0
    0.6014    0.7991   -1.2642 H   0  0  0  0  0  0  0  0  0  0  0  0
    3.3222   -0.9890    0.2229 H   0  0  0  0  0  0  0  0  0  0  0  0
    3.2702    0.7863    0.0300 H   0  0  0  0  0  0  0  0  0  0  0  0
    2.7571   -0.2726   -1.3121 H   0  0  0  0  0  0  0  0  0  0  0  0
  1  2  1  0  0  0  0
  2  3  1  0  0  0  0
  3  4  1  0  0  0  0
  4  5  1  0  0  0  0
  5  6  1  0  0  0  0
  1  7  1  0  0  0  0
  1  8  1  0  0  0  0
  1  9  1  0  0  0  0
  3 10  1  0  0  0  0
  3 11  1  0  0  0  0
  4 12  1  0  0  0  0
  4 13  1  0  0  0  0
  6 14  1  0  0  0  0
  6 15  1  0  0  0  0
  6 16  1  0  0  0  0
M  END
