 xtb: 6.7.1 (edcfbbe)
          04112514083D

 16 15  0     0  0            999 V2000
   -1.6683   -1.1937   -0.0303 C   0  0  0  0  0  0  0  0  0  0  0  0
   -1.7979    0.2159   -0.0103 O   0  0  0  0  0  0  0  0  0  0  0  0
   -0.6529    0.8975    0.4595 C   0  0  0  0  0  0  0  0  0  0  0  0
    0.5281    0.8702   -0.5254 C   0  0  0  0  0  0  0  0  0  0  0  0
    1.2973   -0.3179   -0.4902 O   0  0  0  0  0  0  0  0  0  0  0  0
    2.2476   -0.3727    0.5546 C   0  0  0  0  0  0  0  0  0  0  0  0
   -0.8540   -1.5100   -0.6868 H   0  0  0  0  0  0  0  0  0  0  0  0
   -2.6158   -1.5751   -0.4025 H   0  0  0  0  0  0  0  0  0  0  0  0
   -1.4856   -1.5770    0.9800 H   0  0  0  0  0  0  0  0  0  0  0  0
   -0.9793    1.9302    0.5931 H   0  0  0  0  0  0  0  0  0  0  0  0
   -0.3461    0.4866    1.4311 H   0  0  0  0  0  0  0  0  0  0  0  0
    1.1750    1.7354   -0.3340 H   0  0  0  0  0  0  0  0  0  0  0  0
    0.1346    0.9337   -1.5430 H   0  0  0  0  0  0  0  0  0  0  0  0
    2.9379    0.4753    0.4928 H   0  0  0  0  0  0  0  0  0  0  0  0
    2.7924   -1.3026    0.4125 H   0  0  0  0  0  0  0  0  0  0  0  0
    1.7714   -0.3759    1.5393 H   0  0  0  0  0  0  0  0  0  0  0  0
  1  2  1  0  0  0  0
  2  3  1  0  0  0  0
  3  4  1  0  0  0  0
  4  5  1  0  0  0  0
  5  6  1  0  0  0  0
  1  7  1  0  0  0  0
  1  8  1  0  0  0  0
  1  9  1  0  0  0  0
  3 10  1  0  0  0  0
  3 11  1  0  0  0  0
  4 12  1  0  0  0  0
  4 13  1  0  0  0  0
  6 14  1  0  0  0  0
  6 15  1  0  0  0  0
  6 16  1  0  0  0  0
M  END
