 xtb: 6.7.1 (edcfbbe)
          04112514133D

 23 22  0     0  0            999 V2000
    2.8756   -0.2196   -0.8423 C   0  0  0  0  0  0  0  0  0  0  0  0
    2.3308   -0.1747    0.5810 C   0  0  0  0  0  0  0  0  0  0  0  0
    0.8530   -0.5588    0.6708 C   0  0  0  0  0  0  0  0  0  0  0  0
   -0.0683    0.4474   -0.0180 C   0  0  0  0  0  0  0  0  0  0  0  0
   -1.5542    0.2264    0.2873 C   0  0  0  0  0  0  0  0  0  0  0  0
   -2.3779    1.3842   -0.2758 C   0  0  0  0  0  0  0  0  0  0  0  0
   -2.0589   -1.0963   -0.2857 C   0  0  0  0  0  0  0  0  0  0  0  0
    3.9447   -0.0205   -0.8432 H   0  0  0  0  0  0  0  0  0  0  0  0
    2.7087   -1.2008   -1.2814 H   0  0  0  0  0  0  0  0  0  0  0  0
    2.3915    0.5255   -1.4676 H   0  0  0  0  0  0  0  0  0  0  0  0
    2.4685    0.8288    0.9903 H   0  0  0  0  0  0  0  0  0  0  0  0
    2.9073   -0.8655    1.2012 H   0  0  0  0  0  0  0  0  0  0  0  0
    0.7198   -1.5478    0.2292 H   0  0  0  0  0  0  0  0  0  0  0  0
    0.5741   -0.6245    1.7258 H   0  0  0  0  0  0  0  0  0  0  0  0
    0.2070    1.4522    0.3132 H   0  0  0  0  0  0  0  0  0  0  0  0
    0.0774    0.4023   -1.0987 H   0  0  0  0  0  0  0  0  0  0  0  0
   -1.6846    0.2064    1.3757 H   0  0  0  0  0  0  0  0  0  0  0  0
   -2.0505    2.3313    0.1470 H   0  0  0  0  0  0  0  0  0  0  0  0
   -2.2681    1.4345   -1.3570 H   0  0  0  0  0  0  0  0  0  0  0  0
   -3.4321    1.2517   -0.0439 H   0  0  0  0  0  0  0  0  0  0  0  0
   -3.1254   -1.2042   -0.1012 H   0  0  0  0  0  0  0  0  0  0  0  0
   -1.5497   -1.9402    0.1714 H   0  0  0  0  0  0  0  0  0  0  0  0
   -1.8917   -1.1302   -1.3602 H   0  0  0  0  0  0  0  0  0  0  0  0
  1  2  1  0  0  0  0
  2  3  1  0  0  0  0
  3  4  1  0  0  0  0
  4  5  1  0  0  0  0
  5  6  1  0  0  0  0
  5  7  1  0  0  0  0
  1  8  1  0  0  0  0
  1  9  1  0  0  0  0
  1 10  1  0  0  0  0
  2 11  1  0  0  0  0
  2 12  1  0  0  0  0
  3 13  1  0  0  0  0
  3 14  1  0  0  0  0
  4 15  1  0  0  0  0
  4 16  1  0  0  0  0
  5 17  1  0  0  0  0
  6 18  1  0  0  0  0
  6 19  1  0  0  0  0
  6 20  1  0  0  0  0
  7 21  1  0  0  0  0
  7 22  1  0  0  0  0
  7 23  1  0  0  0  0
M  END
