 xtb: 6.7.1 (edcfbbe)
          04112516113D

 20 19  0     0  0            999 V2000
    3.1021   -1.4513   -0.3819 C   0  0  0  0  0  0  0  0  0  0  0  0
    2.3760   -0.1652   -0.1460 C   0  0  0  0  0  0  0  0  0  0  0  0
    2.7667    0.7463    0.5512 O   0  0  0  0  0  0  0  0  0  0  0  0
    1.2141   -0.1313   -0.8041 O   0  0  0  0  0  0  0  0  0  0  0  0
    0.3904    1.0236   -0.6484 C   0  0  0  0  0  0  0  0  0  0  0  0
   -0.3819    0.9936    0.6699 C   0  0  0  0  0  0  0  0  0  0  0  0
   -1.2004   -0.1708    0.7737 O   0  0  0  0  0  0  0  0  0  0  0  0
   -2.3737   -0.1707    0.1351 C   0  0  0  0  0  0  0  0  0  0  0  0
   -2.7672    0.7687   -0.5223 O   0  0  0  0  0  0  0  0  0  0  0  0
   -3.1215   -1.4457    0.3637 C   0  0  0  0  0  0  0  0  0  0  0  0
    2.8625   -2.1322    0.4325 H   0  0  0  0  0  0  0  0  0  0  0  0
    4.1728   -1.2726   -0.3751 H   0  0  0  0  0  0  0  0  0  0  0  0
    2.7795   -1.8928   -1.3186 H   0  0  0  0  0  0  0  0  0  0  0  0
    1.0115    1.9235   -0.6705 H   0  0  0  0  0  0  0  0  0  0  0  0
   -0.2963    1.0053   -1.4955 H   0  0  0  0  0  0  0  0  0  0  0  0
   -1.0066    1.8892    0.7306 H   0  0  0  0  0  0  0  0  0  0  0  0
    0.3050    0.9419    1.5155 H   0  0  0  0  0  0  0  0  0  0  0  0
   -3.7763   -1.3087    1.2221 H   0  0  0  0  0  0  0  0  0  0  0  0
   -2.4254   -2.2497    0.5767 H   0  0  0  0  0  0  0  0  0  0  0  0
   -3.7343   -1.6703   -0.5035 H   0  0  0  0  0  0  0  0  0  0  0  0
  1  2  1  0  0  0  0
  2  3  2  0  0  0  0
  2  4  1  0  0  0  0
  4  5  1  0  0  0  0
  5  6  1  0  0  0  0
  6  7  1  0  0  0  0
  7  8  1  0  0  0  0
  8  9  2  0  0  0  0
  8 10  1  0  0  0  0
  1 11  1  0  0  0  0
  1 12  1  0  0  0  0
  1 13  1  0  0  0  0
  5 14  1  0  0  0  0
  5 15  1  0  0  0  0
  6 16  1  0  0  0  0
  6 17  1  0  0  0  0
 10 18  1  0  0  0  0
 10 19  1  0  0  0  0
 10 20  1  0  0  0  0
M  END
