 xtb: 6.7.1 (edcfbbe)
          04112516123D

 19 18  0     0  0            999 V2000
   -1.6595   -1.2336   -0.5468 C   0  0  0  0  0  0  0  0  0  0  0  0
   -1.5863   -0.2273    0.5969 C   0  0  0  0  0  0  0  0  0  0  0  0
   -1.2093    1.1890    0.1404 C   0  0  0  0  0  0  0  0  0  0  0  0
    0.2727    1.5439    0.2758 C   0  0  0  0  0  0  0  0  0  0  0  0
    1.2138    0.7563   -0.6475 C   0  0  0  0  0  0  0  0  0  0  0  0
    1.5652   -0.5446   -0.1158 C   0  0  0  0  0  0  0  0  0  0  0  0
    1.8856   -1.6032    0.3426 C   0  0  0  0  0  0  0  0  0  0  0  0
   -0.6893   -1.3607   -1.0177 H   0  0  0  0  0  0  0  0  0  0  0  0
   -2.3751   -0.9043   -1.2976 H   0  0  0  0  0  0  0  0  0  0  0  0
   -1.9808   -2.2028   -0.1719 H   0  0  0  0  0  0  0  0  0  0  0  0
   -2.5642   -0.1934    1.0828 H   0  0  0  0  0  0  0  0  0  0  0  0
   -0.8638   -0.5753    1.3373 H   0  0  0  0  0  0  0  0  0  0  0  0
   -1.7665    1.9112    0.7422 H   0  0  0  0  0  0  0  0  0  0  0  0
   -1.5194    1.3271   -0.8980 H   0  0  0  0  0  0  0  0  0  0  0  0
    0.5864    1.4013    1.3126 H   0  0  0  0  0  0  0  0  0  0  0  0
    0.3820    2.6053    0.0401 H   0  0  0  0  0  0  0  0  0  0  0  0
    2.1423    1.3203   -0.7766 H   0  0  0  0  0  0  0  0  0  0  0  0
    0.7535    0.6349   -1.6314 H   0  0  0  0  0  0  0  0  0  0  0  0
    2.1489   -2.5387    0.7364 H   0  0  0  0  0  0  0  0  0  0  0  0
  1  2  1  0  0  0  0
  2  3  1  0  0  0  0
  3  4  1  0  0  0  0
  4  5  1  0  0  0  0
  5  6  1  0  0  0  0
  6  7  3  0  0  0  0
  1  8  1  0  0  0  0
  1  9  1  0  0  0  0
  1 10  1  0  0  0  0
  2 11  1  0  0  0  0
  2 12  1  0  0  0  0
  3 13  1  0  0  0  0
  3 14  1  0  0  0  0
  4 15  1  0  0  0  0
  4 16  1  0  0  0  0
  5 17  1  0  0  0  0
  5 18  1  0  0  0  0
  7 19  1  0  0  0  0
M  END
