 xtb: 6.7.1 (edcfbbe)
          04112514483D

 18 17  0     0  0            999 V2000
    2.3469    0.3532   -0.6410 C   0  0  0  0  0  0  0  0  0  0  0  0
    1.5164    0.3383    0.6377 C   0  0  0  0  0  0  0  0  0  0  0  0
    0.5104   -0.8125    0.6935 C   0  0  0  0  0  0  0  0  0  0  0  0
   -0.5637   -0.7821   -0.4041 C   0  0  0  0  0  0  0  0  0  0  0  0
   -1.4127    0.4474   -0.3392 C   0  0  0  0  0  0  0  0  0  0  0  0
   -2.6702    0.4623    0.0622 C   0  0  0  0  0  0  0  0  0  0  0  0
    1.7270    0.5616   -1.5091 H   0  0  0  0  0  0  0  0  0  0  0  0
    2.8354   -0.6077   -0.7877 H   0  0  0  0  0  0  0  0  0  0  0  0
    3.1134    1.1224   -0.5820 H   0  0  0  0  0  0  0  0  0  0  0  0
    2.1891    0.2392    1.4933 H   0  0  0  0  0  0  0  0  0  0  0  0
    0.9924    1.2894    0.7454 H   0  0  0  0  0  0  0  0  0  0  0  0
    1.0522   -1.7583    0.6171 H   0  0  0  0  0  0  0  0  0  0  0  0
    0.0110   -0.7921    1.6651 H   0  0  0  0  0  0  0  0  0  0  0  0
   -0.0813   -0.8384   -1.3817 H   0  0  0  0  0  0  0  0  0  0  0  0
   -1.1965   -1.6643   -0.2874 H   0  0  0  0  0  0  0  0  0  0  0  0
   -0.9324    1.3692   -0.6395 H   0  0  0  0  0  0  0  0  0  0  0  0
   -3.2481    1.3699    0.1034 H   0  0  0  0  0  0  0  0  0  0  0  0
   -3.1779   -0.4395    0.3643 H   0  0  0  0  0  0  0  0  0  0  0  0
  1  2  1  0  0  0  0
  2  3  1  0  0  0  0
  3  4  1  0  0  0  0
  4  5  1  0  0  0  0
  5  6  2  0  0  0  0
  1  7  1  0  0  0  0
  1  8  1  0  0  0  0
  1  9  1  0  0  0  0
  2 10  1  0  0  0  0
  2 11  1  0  0  0  0
  3 12  1  0  0  0  0
  3 13  1  0  0  0  0
  4 14  1  0  0  0  0
  4 15  1  0  0  0  0
  5 16  1  0  0  0  0
  6 17  1  0  0  0  0
  6 18  1  0  0  0  0
M  END
