 xtb: 6.7.1 (edcfbbe)
          04112514133D

 23 22  0     0  0            999 V2000
    2.8524   -0.9013    0.3000 C   0  0  0  0  0  0  0  0  0  0  0  0
    2.2440    0.3432   -0.3376 C   0  0  0  0  0  0  0  0  0  0  0  0
    0.7422    0.2141   -0.6022 C   0  0  0  0  0  0  0  0  0  0  0  0
   -0.0844    0.2206    0.6826 C   0  0  0  0  0  0  0  0  0  0  0  0
   -1.6037    0.1134    0.4818 C   0  0  0  0  0  0  0  0  0  0  0  0
   -2.1674    1.2868   -0.3176 C   0  0  0  0  0  0  0  0  0  0  0  0
   -2.0030   -1.2118   -0.1652 C   0  0  0  0  0  0  0  0  0  0  0  0
    2.6546   -1.7769   -0.3145 H   0  0  0  0  0  0  0  0  0  0  0  0
    3.9295   -0.7866    0.3973 H   0  0  0  0  0  0  0  0  0  0  0  0
    2.4407   -1.0756    1.2905 H   0  0  0  0  0  0  0  0  0  0  0  0
    2.7490    0.5302   -1.2884 H   0  0  0  0  0  0  0  0  0  0  0  0
    2.4244    1.2069    0.3066 H   0  0  0  0  0  0  0  0  0  0  0  0
    0.4322    1.0499   -1.2315 H   0  0  0  0  0  0  0  0  0  0  0  0
    0.5623   -0.7093   -1.1547 H   0  0  0  0  0  0  0  0  0  0  0  0
    0.2297   -0.6122    1.3147 H   0  0  0  0  0  0  0  0  0  0  0  0
    0.1275    1.1446    1.2276 H   0  0  0  0  0  0  0  0  0  0  0  0
   -2.0523    0.1452    1.4828 H   0  0  0  0  0  0  0  0  0  0  0  0
   -3.2546    1.2559   -0.3110 H   0  0  0  0  0  0  0  0  0  0  0  0
   -1.8484    2.2331    0.1132 H   0  0  0  0  0  0  0  0  0  0  0  0
   -1.8358    1.2462   -1.3520 H   0  0  0  0  0  0  0  0  0  0  0  0
   -1.6631   -1.2568   -1.1966 H   0  0  0  0  0  0  0  0  0  0  0  0
   -3.0853   -1.3198   -0.1618 H   0  0  0  0  0  0  0  0  0  0  0  0
   -1.5729   -2.0492    0.3794 H   0  0  0  0  0  0  0  0  0  0  0  0
  1  2  1  0  0  0  0
  2  3  1  0  0  0  0
  3  4  1  0  0  0  0
  4  5  1  0  0  0  0
  5  6  1  0  0  0  0
  5  7  1  0  0  0  0
  1  8  1  0  0  0  0
  1  9  1  0  0  0  0
  1 10  1  0  0  0  0
  2 11  1  0  0  0  0
  2 12  1  0  0  0  0
  3 13  1  0  0  0  0
  3 14  1  0  0  0  0
  4 15  1  0  0  0  0
  4 16  1  0  0  0  0
  5 17  1  0  0  0  0
  6 18  1  0  0  0  0
  6 19  1  0  0  0  0
  6 20  1  0  0  0  0
  7 21  1  0  0  0  0
  7 22  1  0  0  0  0
  7 23  1  0  0  0  0
M  END
