 xtb: 6.7.1 (edcfbbe)
          04112514233D

 23 22  0     0  0            999 V2000
    1.4722    1.3886   -0.7939 C   0  0  0  0  0  0  0  0  0  0  0  0
    2.0905    0.0164   -0.5346 C   0  0  0  0  0  0  0  0  0  0  0  0
    2.9977    0.0642    0.6935 C   0  0  0  0  0  0  0  0  0  0  0  0
    1.0291   -1.0894   -0.4253 C   0  0  0  0  0  0  0  0  0  0  0  0
    0.0981   -1.0124    0.7836 C   0  0  0  0  0  0  0  0  0  0  0  0
   -0.7772    0.1224    0.7486 O   0  0  0  0  0  0  0  0  0  0  0  0
   -1.8834    0.0465    0.0196 C   0  0  0  0  0  0  0  0  0  0  0  0
   -2.2173   -0.9469   -0.5940 O   0  0  0  0  0  0  0  0  0  0  0  0
   -2.6515    1.3342    0.0528 C   0  0  0  0  0  0  0  0  0  0  0  0
    2.2537    2.1217   -0.9794 H   0  0  0  0  0  0  0  0  0  0  0  0
    0.8899    1.7150    0.0635 H   0  0  0  0  0  0  0  0  0  0  0  0
    0.8200    1.3556   -1.6646 H   0  0  0  0  0  0  0  0  0  0  0  0
    2.7084   -0.2437   -1.4024 H   0  0  0  0  0  0  0  0  0  0  0  0
    3.8382    0.7280    0.5070 H   0  0  0  0  0  0  0  0  0  0  0  0
    3.3855   -0.9249    0.9241 H   0  0  0  0  0  0  0  0  0  0  0  0
    2.4588    0.4415    1.5585 H   0  0  0  0  0  0  0  0  0  0  0  0
    1.5343   -2.0552   -0.3709 H   0  0  0  0  0  0  0  0  0  0  0  0
    0.4139   -1.0883   -1.3288 H   0  0  0  0  0  0  0  0  0  0  0  0
   -0.5173   -1.9176    0.8164 H   0  0  0  0  0  0  0  0  0  0  0  0
    0.6547   -0.9075    1.7139 H   0  0  0  0  0  0  0  0  0  0  0  0
   -2.5299    1.8124    1.0191 H   0  0  0  0  0  0  0  0  0  0  0  0
   -3.6973    1.1426   -0.1635 H   0  0  0  0  0  0  0  0  0  0  0  0
   -2.2481    1.9926   -0.7140 H   0  0  0  0  0  0  0  0  0  0  0  0
  1  2  1  0  0  0  0
  2  3  1  0  0  0  0
  2  4  1  0  0  0  0
  4  5  1  0  0  0  0
  5  6  1  0  0  0  0
  6  7  1  0  0  0  0
  7  8  2  0  0  0  0
  7  9  1  0  0  0  0
  1 10  1  0  0  0  0
  1 11  1  0  0  0  0
  1 12  1  0  0  0  0
  2 13  1  0  0  0  0
  3 14  1  0  0  0  0
  3 15  1  0  0  0  0
  3 16  1  0  0  0  0
  4 17  1  0  0  0  0
  4 18  1  0  0  0  0
  5 19  1  0  0  0  0
  5 20  1  0  0  0  0
  9 21  1  0  0  0  0
  9 22  1  0  0  0  0
  9 23  1  0  0  0  0
M  END
