 xtb: 6.7.1 (edcfbbe)
          04112516273D

 19 18  0     0  0            999 V2000
   -2.9590   -0.7839   -0.2068 C   0  0  0  0  0  0  0  0  0  0  0  0
   -2.4368    0.5137    0.4002 C   0  0  0  0  0  0  0  0  0  0  0  0
   -1.0997    0.9612   -0.1918 C   0  0  0  0  0  0  0  0  0  0  0  0
    0.0574    0.0303    0.1637 C   0  0  0  0  0  0  0  0  0  0  0  0
    1.3904    0.5769   -0.3595 C   0  0  0  0  0  0  0  0  0  0  0  0
    2.4879   -0.3093   -0.0314 C   0  0  0  0  0  0  0  0  0  0  0  0
    3.3762   -1.0598    0.2528 C   0  0  0  0  0  0  0  0  0  0  0  0
   -3.9457   -1.0136    0.1884 H   0  0  0  0  0  0  0  0  0  0  0  0
   -2.3003   -1.6167    0.0246 H   0  0  0  0  0  0  0  0  0  0  0  0
   -3.0353   -0.6937   -1.2882 H   0  0  0  0  0  0  0  0  0  0  0  0
   -3.1727    1.3029    0.2294 H   0  0  0  0  0  0  0  0  0  0  0  0
   -2.3291    0.3911    1.4804 H   0  0  0  0  0  0  0  0  0  0  0  0
   -0.8720    1.9632    0.1813 H   0  0  0  0  0  0  0  0  0  0  0  0
   -1.1925    1.0260   -1.2787 H   0  0  0  0  0  0  0  0  0  0  0  0
   -0.1102   -0.9587   -0.2656 H   0  0  0  0  0  0  0  0  0  0  0  0
    0.1165   -0.0823    1.2490 H   0  0  0  0  0  0  0  0  0  0  0  0
    1.5866    1.5595    0.0787 H   0  0  0  0  0  0  0  0  0  0  0  0
    1.3416    0.6915   -1.4459 H   0  0  0  0  0  0  0  0  0  0  0  0
    4.1633   -1.7086    0.4958 H   0  0  0  0  0  0  0  0  0  0  0  0
  1  2  1  0  0  0  0
  2  3  1  0  0  0  0
  3  4  1  0  0  0  0
  4  5  1  0  0  0  0
  5  6  1  0  0  0  0
  6  7  3  0  0  0  0
  1  8  1  0  0  0  0
  1  9  1  0  0  0  0
  1 10  1  0  0  0  0
  2 11  1  0  0  0  0
  2 12  1  0  0  0  0
  3 13  1  0  0  0  0
  3 14  1  0  0  0  0
  4 15  1  0  0  0  0
  4 16  1  0  0  0  0
  5 17  1  0  0  0  0
  5 18  1  0  0  0  0
  7 19  1  0  0  0  0
M  END
