 xtb: 6.7.1 (edcfbbe)
          04112516013D

 20 19  0     0  0            999 V2000
   -2.3175   -1.1360   -0.0425 C   0  0  0  0  0  0  0  0  0  0  0  0
   -1.9202    0.1223   -0.8072 C   0  0  0  0  0  0  0  0  0  0  0  0
   -1.5239    1.2860    0.1032 C   0  0  0  0  0  0  0  0  0  0  0  0
   -0.2766    1.0176    0.9422 C   0  0  0  0  0  0  0  0  0  0  0  0
    0.8732    0.8436    0.1017 O   0  0  0  0  0  0  0  0  0  0  0  0
    1.4353   -0.3551    0.0078 C   0  0  0  0  0  0  0  0  0  0  0  0
    1.0614   -1.3298    0.6280 O   0  0  0  0  0  0  0  0  0  0  0  0
    2.5860   -0.3422   -0.9544 C   0  0  0  0  0  0  0  0  0  0  0  0
   -2.7197   -1.8785   -0.7274 H   0  0  0  0  0  0  0  0  0  0  0  0
   -1.4579   -1.5773    0.4577 H   0  0  0  0  0  0  0  0  0  0  0  0
   -3.0757   -0.9073    0.7027 H   0  0  0  0  0  0  0  0  0  0  0  0
   -1.0910   -0.1115   -1.4797 H   0  0  0  0  0  0  0  0  0  0  0  0
   -2.7611    0.4466   -1.4232 H   0  0  0  0  0  0  0  0  0  0  0  0
   -1.3396    2.1696   -0.5100 H   0  0  0  0  0  0  0  0  0  0  0  0
   -2.3410    1.5063    0.7909 H   0  0  0  0  0  0  0  0  0  0  0  0
   -0.0543    1.8804    1.5739 H   0  0  0  0  0  0  0  0  0  0  0  0
   -0.3961    0.1268    1.5638 H   0  0  0  0  0  0  0  0  0  0  0  0
    2.1959   -0.2567   -1.9658 H   0  0  0  0  0  0  0  0  0  0  0  0
    3.1519   -1.2628   -0.8589 H   0  0  0  0  0  0  0  0  0  0  0  0
    3.2136    0.5219   -0.7591 H   0  0  0  0  0  0  0  0  0  0  0  0
  1  2  1  0  0  0  0
  2  3  1  0  0  0  0
  3  4  1  0  0  0  0
  4  5  1  0  0  0  0
  5  6  1  0  0  0  0
  6  7  2  0  0  0  0
  6  8  1  0  0  0  0
  1  9  1  0  0  0  0
  1 10  1  0  0  0  0
  1 11  1  0  0  0  0
  2 12  1  0  0  0  0
  2 13  1  0  0  0  0
  3 14  1  0  0  0  0
  3 15  1  0  0  0  0
  4 16  1  0  0  0  0
  4 17  1  0  0  0  0
  8 18  1  0  0  0  0
  8 19  1  0  0  0  0
  8 20  1  0  0  0  0
M  END
