 xtb: 6.7.1 (edcfbbe)
          04112516053D

 26 26  0     0  0            999 V2000
   -4.3745    0.5901    0.3558 C   0  0  0  0  0  0  0  0  0  0  0  0
   -3.4477   -0.2253   -0.5404 C   0  0  0  0  0  0  0  0  0  0  0  0
   -2.3055   -0.9027    0.2354 C   0  0  0  0  0  0  0  0  0  0  0  0
   -0.9789   -0.1947    0.1444 C   0  0  0  0  0  0  0  0  0  0  0  0
   -0.8694    1.1857    0.1935 C   0  0  0  0  0  0  0  0  0  0  0  0
    0.3676    1.8040    0.1197 C   0  0  0  0  0  0  0  0  0  0  0  0
    1.5227    1.0525    0.0018 C   0  0  0  0  0  0  0  0  0  0  0  0
    1.4270   -0.3470   -0.0437 C   0  0  0  0  0  0  0  0  0  0  0  0
    0.1852   -0.9510    0.0247 C   0  0  0  0  0  0  0  0  0  0  0  0
    2.6321   -1.0061   -0.1602 O   0  0  0  0  0  0  0  0  0  0  0  0
    2.6239   -2.4177   -0.2015 C   0  0  0  0  0  0  0  0  0  0  0  0
    2.7350    1.6747   -0.0689 O   0  0  0  0  0  0  0  0  0  0  0  0
   -4.8608   -0.0561    1.0834 H   0  0  0  0  0  0  0  0  0  0  0  0
   -3.8268    1.3568    0.8975 H   0  0  0  0  0  0  0  0  0  0  0  0
   -5.1452    1.0752   -0.2390 H   0  0  0  0  0  0  0  0  0  0  0  0
   -3.0272    0.4157   -1.3172 H   0  0  0  0  0  0  0  0  0  0  0  0
   -4.0433   -0.9923   -1.0388 H   0  0  0  0  0  0  0  0  0  0  0  0
   -2.1720   -1.9216   -0.1317 H   0  0  0  0  0  0  0  0  0  0  0  0
   -2.5888   -0.9771    1.2891 H   0  0  0  0  0  0  0  0  0  0  0  0
   -1.7494    1.7999    0.2874 H   0  0  0  0  0  0  0  0  0  0  0  0
    0.4571    2.8781    0.1541 H   0  0  0  0  0  0  0  0  0  0  0  0
    0.1058   -2.0261   -0.0136 H   0  0  0  0  0  0  0  0  0  0  0  0
    2.1952   -2.8359    0.7128 H   0  0  0  0  0  0  0  0  0  0  0  0
    3.6691   -2.7078   -0.2825 H   0  0  0  0  0  0  0  0  0  0  0  0
    2.0717   -2.7831   -1.0711 H   0  0  0  0  0  0  0  0  0  0  0  0
    3.4269    0.9987   -0.1466 H   0  0  0  0  0  0  0  0  0  0  0  0
  1  2  1  0  0  0  0
  2  3  1  0  0  0  0
  3  4  1  0  0  0  0
  4  5  4  0  0  0  0
  5  6  4  0  0  0  0
  6  7  4  0  0  0  0
  7  8  4  0  0  0  0
  4  9  4  0  0  0  0
  8  9  4  0  0  0  0
  8 10  1  0  0  0  0
 10 11  1  0  0  0  0
  7 12  1  0  0  0  0
  1 13  1  0  0  0  0
  1 14  1  0  0  0  0
  1 15  1  0  0  0  0
  2 16  1  0  0  0  0
  2 17  1  0  0  0  0
  3 18  1  0  0  0  0
  3 19  1  0  0  0  0
  5 20  1  0  0  0  0
  6 21  1  0  0  0  0
  9 22  1  0  0  0  0
 11 23  1  0  0  0  0
 11 24  1  0  0  0  0
 11 25  1  0  0  0  0
 12 26  1  0  0  0  0
M  END
