 xtb: 6.7.1 (edcfbbe)
          04112516013D

 20 19  0     0  0            999 V2000
   -3.5851   -0.7510   -0.0648 C   0  0  0  0  0  0  0  0  0  0  0  0
   -2.1471   -0.3814   -0.4074 C   0  0  0  0  0  0  0  0  0  0  0  0
   -1.6107    0.7065    0.5216 C   0  0  0  0  0  0  0  0  0  0  0  0
   -0.1764    1.0911    0.1895 C   0  0  0  0  0  0  0  0  0  0  0  0
    0.6794   -0.0242    0.4794 O   0  0  0  0  0  0  0  0  0  0  0  0
    1.8680   -0.0754   -0.1064 C   0  0  0  0  0  0  0  0  0  0  0  0
    2.2730    0.7803   -0.8680 O   0  0  0  0  0  0  0  0  0  0  0  0
    2.6242   -1.3114    0.2780 C   0  0  0  0  0  0  0  0  0  0  0  0
   -4.2329    0.1175   -0.1562 H   0  0  0  0  0  0  0  0  0  0  0  0
   -3.9490   -1.5241   -0.7365 H   0  0  0  0  0  0  0  0  0  0  0  0
   -3.6503   -1.1223    0.9549 H   0  0  0  0  0  0  0  0  0  0  0  0
   -1.5121   -1.2653   -0.3239 H   0  0  0  0  0  0  0  0  0  0  0  0
   -2.0967   -0.0298   -1.4404 H   0  0  0  0  0  0  0  0  0  0  0  0
   -2.2283    1.6011    0.4390 H   0  0  0  0  0  0  0  0  0  0  0  0
   -1.6466    0.3554    1.5536 H   0  0  0  0  0  0  0  0  0  0  0  0
   -0.0606    1.3545   -0.8673 H   0  0  0  0  0  0  0  0  0  0  0  0
    0.1566    1.9397    0.7957 H   0  0  0  0  0  0  0  0  0  0  0  0
    2.1531   -1.7826    1.1335 H   0  0  0  0  0  0  0  0  0  0  0  0
    3.6562   -1.0508    0.4931 H   0  0  0  0  0  0  0  0  0  0  0  0
    2.6196   -1.9960   -0.5673 H   0  0  0  0  0  0  0  0  0  0  0  0
  1  2  1  0  0  0  0
  2  3  1  0  0  0  0
  3  4  1  0  0  0  0
  4  5  1  0  0  0  0
  5  6  1  0  0  0  0
  6  7  2  0  0  0  0
  6  8  1  0  0  0  0
  1  9  1  0  0  0  0
  1 10  1  0  0  0  0
  1 11  1  0  0  0  0
  2 12  1  0  0  0  0
  2 13  1  0  0  0  0
  3 14  1  0  0  0  0
  3 15  1  0  0  0  0
  4 16  1  0  0  0  0
  4 17  1  0  0  0  0
  8 18  1  0  0  0  0
  8 19  1  0  0  0  0
  8 20  1  0  0  0  0
M  END
