 xtb: 6.7.1 (edcfbbe)
          04112514243D

 14 13  0     0  0            999 V2000
    0.3896    0.6917    0.5721 C   0  0  0  0  0  0  0  0  0  0  0  0
   -0.7899    1.4756   -0.0100 C   0  0  0  0  0  0  0  0  0  0  0  0
   -1.7284    0.6437   -0.8674 C   0  0  0  0  0  0  0  0  0  0  0  0
   -2.4823   -0.6868    0.0889 Cl  0  0  0  0  0  0  0  0  0  0  0  0
    1.3682    0.2406   -0.4997 C   0  0  0  0  0  0  0  0  0  0  0  0
    2.7945   -0.5558    0.2574 Cl  0  0  0  0  0  0  0  0  0  0  0  0
    0.0164   -0.1783    1.1143 H   0  0  0  0  0  0  0  0  0  0  0  0
    0.9159    1.3296    1.2831 H   0  0  0  0  0  0  0  0  0  0  0  0
   -0.4163    2.2912   -0.6309 H   0  0  0  0  0  0  0  0  0  0  0  0
   -1.3557    1.9071    0.8161 H   0  0  0  0  0  0  0  0  0  0  0  0
   -2.5542    1.2471   -1.2387 H   0  0  0  0  0  0  0  0  0  0  0  0
   -1.2141    0.1650   -1.6969 H   0  0  0  0  0  0  0  0  0  0  0  0
    0.9359   -0.5017   -1.1667 H   0  0  0  0  0  0  0  0  0  0  0  0
    1.7567    1.0830   -1.0693 H   0  0  0  0  0  0  0  0  0  0  0  0
  1  2  1  0  0  0  0
  2  3  1  0  0  0  0
  3  4  1  0  0  0  0
  1  5  1  0  0  0  0
  5  6  1  0  0  0  0
  1  7  1  0  0  0  0
  1  8  1  0  0  0  0
  2  9  1  0  0  0  0
  2 10  1  0  0  0  0
  3 11  1  0  0  0  0
  3 12  1  0  0  0  0
  5 13  1  0  0  0  0
  5 14  1  0  0  0  0
M  END
