 xtb: 6.7.1 (edcfbbe)
          04112514233D

 23 22  0     0  0            999 V2000
    1.2819    0.9325   -1.2194 C   0  0  0  0  0  0  0  0  0  0  0  0
    2.1251   -0.0692   -0.4331 C   0  0  0  0  0  0  0  0  0  0  0  0
    2.7347    0.5992    0.7980 C   0  0  0  0  0  0  0  0  0  0  0  0
    1.3344   -1.3334   -0.0625 C   0  0  0  0  0  0  0  0  0  0  0  0
    0.0594   -1.1056    0.7459 C   0  0  0  0  0  0  0  0  0  0  0  0
   -1.0362   -0.8009   -0.1313 O   0  0  0  0  0  0  0  0  0  0  0  0
   -1.8029    0.2494    0.1185 C   0  0  0  0  0  0  0  0  0  0  0  0
   -1.6498    0.9885    1.0717 O   0  0  0  0  0  0  0  0  0  0  0  0
   -2.8655    0.4159   -0.9268 C   0  0  0  0  0  0  0  0  0  0  0  0
    1.9111    1.7304   -1.6069 H   0  0  0  0  0  0  0  0  0  0  0  0
    0.5254    1.3867   -0.5821 H   0  0  0  0  0  0  0  0  0  0  0  0
    0.7859    0.4460   -2.0561 H   0  0  0  0  0  0  0  0  0  0  0  0
    2.9474   -0.3989   -1.0783 H   0  0  0  0  0  0  0  0  0  0  0  0
    3.3279   -0.1115    1.3679 H   0  0  0  0  0  0  0  0  0  0  0  0
    1.9608    1.0034    1.4467 H   0  0  0  0  0  0  0  0  0  0  0  0
    3.3788    1.4212    0.4956 H   0  0  0  0  0  0  0  0  0  0  0  0
    1.9843   -1.9876    0.5194 H   0  0  0  0  0  0  0  0  0  0  0  0
    1.0520   -1.8614   -0.9749 H   0  0  0  0  0  0  0  0  0  0  0  0
   -0.2194   -2.0223    1.2730 H   0  0  0  0  0  0  0  0  0  0  0  0
    0.1646   -0.2956    1.4719 H   0  0  0  0  0  0  0  0  0  0  0  0
   -3.8146    0.6331   -0.4457 H   0  0  0  0  0  0  0  0  0  0  0  0
   -2.9307   -0.4798   -1.5344 H   0  0  0  0  0  0  0  0  0  0  0  0
   -2.6030    1.2662   -1.5526 H   0  0  0  0  0  0  0  0  0  0  0  0
  1  2  1  0  0  0  0
  2  3  1  0  0  0  0
  2  4  1  0  0  0  0
  4  5  1  0  0  0  0
  5  6  1  0  0  0  0
  6  7  1  0  0  0  0
  7  8  2  0  0  0  0
  7  9  1  0  0  0  0
  1 10  1  0  0  0  0
  1 11  1  0  0  0  0
  1 12  1  0  0  0  0
  2 13  1  0  0  0  0
  3 14  1  0  0  0  0
  3 15  1  0  0  0  0
  3 16  1  0  0  0  0
  4 17  1  0  0  0  0
  4 18  1  0  0  0  0
  5 19  1  0  0  0  0
  5 20  1  0  0  0  0
  9 21  1  0  0  0  0
  9 22  1  0  0  0  0
  9 23  1  0  0  0  0
M  END
