 xtb: 6.7.1 (edcfbbe)
          04112516153D

 26 25  0     0  0            999 V2000
    3.2612   -0.3529   -1.0261 C   0  0  0  0  0  0  0  0  0  0  0  0
    1.8858   -0.4430   -0.3795 C   0  0  0  0  0  0  0  0  0  0  0  0
    1.8562   -1.4866    0.7371 C   0  0  0  0  0  0  0  0  0  0  0  0
    0.8567   -0.7877   -1.4183 C   0  0  0  0  0  0  0  0  0  0  0  0
   -0.4018   -0.7970   -1.3474 N   0  0  0  0  0  0  0  0  0  0  0  0
   -0.9503   -0.3976   -0.1161 O   0  0  0  0  0  0  0  0  0  0  0  0
   -2.3232   -0.2924   -0.1104 C   0  0  0  0  0  0  0  0  0  0  0  0
   -3.0341   -0.5845   -1.0464 O   0  0  0  0  0  0  0  0  0  0  0  0
   -2.7123    0.1582    1.0825 N   0  0  0  0  0  0  0  0  0  0  0  0
   -4.0983    0.4020    1.4149 C   0  0  0  0  0  0  0  0  0  0  0  0
    1.3705    1.2169    0.3094 S   0  0  0  0  0  0  0  0  0  0  0  0
    2.8672    1.7585    1.1929 C   0  0  0  0  0  0  0  0  0  0  0  0
    4.0314   -0.1932   -0.2770 H   0  0  0  0  0  0  0  0  0  0  0  0
    3.4786   -1.2853   -1.5430 H   0  0  0  0  0  0  0  0  0  0  0  0
    3.2908    0.4614   -1.7471 H   0  0  0  0  0  0  0  0  0  0  0  0
    0.8629   -1.5425    1.1755 H   0  0  0  0  0  0  0  0  0  0  0  0
    2.5700   -1.2278    1.5148 H   0  0  0  0  0  0  0  0  0  0  0  0
    2.1183   -2.4625    0.3334 H   0  0  0  0  0  0  0  0  0  0  0  0
    1.2145   -1.0955   -2.3913 H   0  0  0  0  0  0  0  0  0  0  0  0
   -2.0012    0.4065    1.7538 H   0  0  0  0  0  0  0  0  0  0  0  0
   -4.7040    0.0914    0.5662 H   0  0  0  0  0  0  0  0  0  0  0  0
   -4.2598    1.4618    1.6077 H   0  0  0  0  0  0  0  0  0  0  0  0
   -4.3769   -0.1769    2.2940 H   0  0  0  0  0  0  0  0  0  0  0  0
    2.5574    2.6365    1.7494 H   0  0  0  0  0  0  0  0  0  0  0  0
    3.6459    2.0244    0.4866 H   0  0  0  0  0  0  0  0  0  0  0  0
    3.1955    0.9854    1.8787 H   0  0  0  0  0  0  0  0  0  0  0  0
  1  2  1  0  0  0  0
  2  3  1  0  0  0  0
  2  4  1  0  0  0  0
  4  5  2  0  0  0  0
  5  6  1  0  0  0  0
  6  7  1  0  0  0  0
  7  8  2  0  0  0  0
  7  9  4  0  0  0  0
  9 10  1  0  0  0  0
  2 11  1  0  0  0  0
 11 12  1  0  0  0  0
  1 13  1  0  0  0  0
  1 14  1  0  0  0  0
  1 15  1  0  0  0  0
  3 16  1  0  0  0  0
  3 17  1  0  0  0  0
  3 18  1  0  0  0  0
  4 19  1  0  0  0  0
  9 20  1  0  0  0  0
 10 21  1  0  0  0  0
 10 22  1  0  0  0  0
 10 23  1  0  0  0  0
 12 24  1  0  0  0  0
 12 25  1  0  0  0  0
 12 26  1  0  0  0  0
M  END
