 xtb: 6.7.1 (edcfbbe)
          04112514233D

 23 22  0     0  0            999 V2000
    1.5516    1.4380   -0.6731 C   0  0  0  0  0  0  0  0  0  0  0  0
    2.1220    0.0275   -0.5459 C   0  0  0  0  0  0  0  0  0  0  0  0
    3.1133   -0.0459    0.6143 C   0  0  0  0  0  0  0  0  0  0  0  0
    1.0205   -1.0366   -0.4265 C   0  0  0  0  0  0  0  0  0  0  0  0
    0.1033   -0.9155    0.7896 C   0  0  0  0  0  0  0  0  0  0  0  0
   -0.8056    0.1900    0.6926 O   0  0  0  0  0  0  0  0  0  0  0  0
   -1.9318    0.0244    0.0119 C   0  0  0  0  0  0  0  0  0  0  0  0
   -2.2457   -1.0200   -0.5237 O   0  0  0  0  0  0  0  0  0  0  0  0
   -2.7644    1.2720    0.0046 C   0  0  0  0  0  0  0  0  0  0  0  0
    0.8446    1.4924   -1.4984 H   0  0  0  0  0  0  0  0  0  0  0  0
    2.3521    2.1500   -0.8597 H   0  0  0  0  0  0  0  0  0  0  0  0
    1.0380    1.7277    0.2397 H   0  0  0  0  0  0  0  0  0  0  0  0
    2.6671   -0.2024   -1.4691 H   0  0  0  0  0  0  0  0  0  0  0  0
    3.9611    0.6058    0.4189 H   0  0  0  0  0  0  0  0  0  0  0  0
    3.4822   -1.0607    0.7407 H   0  0  0  0  0  0  0  0  0  0  0  0
    2.6510    0.2762    1.5434 H   0  0  0  0  0  0  0  0  0  0  0  0
    1.4897   -2.0205   -0.3776 H   0  0  0  0  0  0  0  0  0  0  0  0
    0.3954   -1.0135   -1.3228 H   0  0  0  0  0  0  0  0  0  0  0  0
   -0.4865   -1.8327    0.8865 H   0  0  0  0  0  0  0  0  0  0  0  0
    0.6666   -0.7368    1.7045 H   0  0  0  0  0  0  0  0  0  0  0  0
   -2.2251    2.0821    0.4826 H   0  0  0  0  0  0  0  0  0  0  0  0
   -3.6940    1.0758    0.5333 H   0  0  0  0  0  0  0  0  0  0  0  0
   -3.0133    1.5283   -1.0216 H   0  0  0  0  0  0  0  0  0  0  0  0
  1  2  1  0  0  0  0
  2  3  1  0  0  0  0
  2  4  1  0  0  0  0
  4  5  1  0  0  0  0
  5  6  1  0  0  0  0
  6  7  1  0  0  0  0
  7  8  2  0  0  0  0
  7  9  1  0  0  0  0
  1 10  1  0  0  0  0
  1 11  1  0  0  0  0
  1 12  1  0  0  0  0
  2 13  1  0  0  0  0
  3 14  1  0  0  0  0
  3 15  1  0  0  0  0
  3 16  1  0  0  0  0
  4 17  1  0  0  0  0
  4 18  1  0  0  0  0
  5 19  1  0  0  0  0
  5 20  1  0  0  0  0
  9 21  1  0  0  0  0
  9 22  1  0  0  0  0
  9 23  1  0  0  0  0
M  END
