 xtb: 6.7.1 (edcfbbe)
          04112514203D

 23 22  0     0  0            999 V2000
    2.5320    0.7733   -0.5272 C   0  0  0  0  0  0  0  0  0  0  0  0
    1.8954    0.0738    0.6685 C   0  0  0  0  0  0  0  0  0  0  0  0
    1.0349   -1.1274    0.2743 C   0  0  0  0  0  0  0  0  0  0  0  0
   -0.2320   -0.7978   -0.5197 C   0  0  0  0  0  0  0  0  0  0  0  0
   -1.2815    0.0113    0.2649 C   0  0  0  0  0  0  0  0  0  0  0  0
   -1.2527    1.4932   -0.1082 C   0  0  0  0  0  0  0  0  0  0  0  0
   -2.6844   -0.5443    0.0166 C   0  0  0  0  0  0  0  0  0  0  0  0
    1.7758    1.1956   -1.1834 H   0  0  0  0  0  0  0  0  0  0  0  0
    3.1789    1.5808   -0.1915 H   0  0  0  0  0  0  0  0  0  0  0  0
    3.1307    0.0702   -1.1022 H   0  0  0  0  0  0  0  0  0  0  0  0
    1.2952    0.7860    1.2366 H   0  0  0  0  0  0  0  0  0  0  0  0
    2.6904   -0.2802    1.3299 H   0  0  0  0  0  0  0  0  0  0  0  0
    1.6469   -1.8094   -0.3220 H   0  0  0  0  0  0  0  0  0  0  0  0
    0.7440   -1.6602    1.1834 H   0  0  0  0  0  0  0  0  0  0  0  0
    0.0334   -0.2651   -1.4334 H   0  0  0  0  0  0  0  0  0  0  0  0
   -0.6762   -1.7485   -0.8232 H   0  0  0  0  0  0  0  0  0  0  0  0
   -1.0662   -0.0817    1.3352 H   0  0  0  0  0  0  0  0  0  0  0  0
   -1.5098    1.6207   -1.1582 H   0  0  0  0  0  0  0  0  0  0  0  0
   -1.9739    2.0482    0.4884 H   0  0  0  0  0  0  0  0  0  0  0  0
   -0.2700    1.9242    0.0591 H   0  0  0  0  0  0  0  0  0  0  0  0
   -3.4260    0.0316    0.5660 H   0  0  0  0  0  0  0  0  0  0  0  0
   -2.7508   -1.5814    0.3374 H   0  0  0  0  0  0  0  0  0  0  0  0
   -2.9280   -0.4940   -1.0428 H   0  0  0  0  0  0  0  0  0  0  0  0
  1  2  1  0  0  0  0
  2  3  1  0  0  0  0
  3  4  1  0  0  0  0
  4  5  1  0  0  0  0
  5  6  1  0  0  0  0
  5  7  1  0  0  0  0
  1  8  1  0  0  0  0
  1  9  1  0  0  0  0
  1 10  1  0  0  0  0
  2 11  1  0  0  0  0
  2 12  1  0  0  0  0
  3 13  1  0  0  0  0
  3 14  1  0  0  0  0
  4 15  1  0  0  0  0
  4 16  1  0  0  0  0
  5 17  1  0  0  0  0
  6 18  1  0  0  0  0
  6 19  1  0  0  0  0
  6 20  1  0  0  0  0
  7 21  1  0  0  0  0
  7 22  1  0  0  0  0
  7 23  1  0  0  0  0
M  END
