 xtb: 6.7.1 (edcfbbe)
          04112516153D

 26 25  0     0  0            999 V2000
    1.6848   -1.3663   -1.6589 C   0  0  0  0  0  0  0  0  0  0  0  0
    1.9101   -0.6275   -0.3381 C   0  0  0  0  0  0  0  0  0  0  0  0
    3.3933   -0.5708    0.0033 C   0  0  0  0  0  0  0  0  0  0  0  0
    1.1293   -1.2675    0.7634 C   0  0  0  0  0  0  0  0  0  0  0  0
   -0.1146   -1.3901    0.9327 N   0  0  0  0  0  0  0  0  0  0  0  0
   -0.9500   -0.8798   -0.0961 O   0  0  0  0  0  0  0  0  0  0  0  0
   -1.9477   -0.0551    0.3468 C   0  0  0  0  0  0  0  0  0  0  0  0
   -1.9714    0.4252    1.4635 O   0  0  0  0  0  0  0  0  0  0  0  0
   -2.8272    0.1539   -0.6310 N   0  0  0  0  0  0  0  0  0  0  0  0
   -3.9327    1.0776   -0.5062 C   0  0  0  0  0  0  0  0  0  0  0  0
    1.2778    1.1119   -0.6077 S   0  0  0  0  0  0  0  0  0  0  0  0
    1.1692    1.7726    1.0781 C   0  0  0  0  0  0  0  0  0  0  0  0
    0.6245   -1.4188   -1.8898 H   0  0  0  0  0  0  0  0  0  0  0  0
    2.1921   -0.8355   -2.4600 H   0  0  0  0  0  0  0  0  0  0  0  0
    2.0830   -2.3754   -1.5865 H   0  0  0  0  0  0  0  0  0  0  0  0
    3.5619   -0.0457    0.9407 H   0  0  0  0  0  0  0  0  0  0  0  0
    3.9295   -0.0508   -0.7861 H   0  0  0  0  0  0  0  0  0  0  0  0
    3.7906   -1.5791    0.0952 H   0  0  0  0  0  0  0  0  0  0  0  0
    1.6929   -1.7086    1.5765 H   0  0  0  0  0  0  0  0  0  0  0  0
   -2.6657   -0.2890   -1.5227 H   0  0  0  0  0  0  0  0  0  0  0  0
   -4.8698    0.5624   -0.7098 H   0  0  0  0  0  0  0  0  0  0  0  0
   -3.8121    1.9084   -1.2006 H   0  0  0  0  0  0  0  0  0  0  0  0
   -3.9390    1.4557    0.5139 H   0  0  0  0  0  0  0  0  0  0  0  0
    2.1022    1.6018    1.6046 H   0  0  0  0  0  0  0  0  0  0  0  0
    0.3325    1.3209    1.6071 H   0  0  0  0  0  0  0  0  0  0  0  0
    0.9968    2.8377    0.9623 H   0  0  0  0  0  0  0  0  0  0  0  0
  1  2  1  0  0  0  0
  2  3  1  0  0  0  0
  2  4  1  0  0  0  0
  4  5  2  0  0  0  0
  5  6  1  0  0  0  0
  6  7  1  0  0  0  0
  7  8  2  0  0  0  0
  7  9  4  0  0  0  0
  9 10  1  0  0  0  0
  2 11  1  0  0  0  0
 11 12  1  0  0  0  0
  1 13  1  0  0  0  0
  1 14  1  0  0  0  0
  1 15  1  0  0  0  0
  3 16  1  0  0  0  0
  3 17  1  0  0  0  0
  3 18  1  0  0  0  0
  4 19  1  0  0  0  0
  9 20  1  0  0  0  0
 10 21  1  0  0  0  0
 10 22  1  0  0  0  0
 10 23  1  0  0  0  0
 12 24  1  0  0  0  0
 12 25  1  0  0  0  0
 12 26  1  0  0  0  0
M  END
