 xtb: 6.7.1 (edcfbbe)
          04112516273D

 20 19  0     0  0            999 V2000
    3.9682    0.2934    0.1144 C   0  0  0  0  0  0  0  0  0  0  0  0
    2.6127    0.0560   -0.4701 C   0  0  0  0  0  0  0  0  0  0  0  0
    2.3125    0.2016   -1.6350 O   0  0  0  0  0  0  0  0  0  0  0  0
    1.7431   -0.3544    0.4594 O   0  0  0  0  0  0  0  0  0  0  0  0
    0.4077   -0.6338    0.0532 C   0  0  0  0  0  0  0  0  0  0  0  0
   -0.4140    0.6568   -0.0443 C   0  0  0  0  0  0  0  0  0  0  0  0
   -1.7485    0.3780   -0.4536 O   0  0  0  0  0  0  0  0  0  0  0  0
   -2.6144   -0.0525    0.4710 C   0  0  0  0  0  0  0  0  0  0  0  0
   -2.3156   -0.2019    1.6355 O   0  0  0  0  0  0  0  0  0  0  0  0
   -3.9591   -0.3215   -0.1243 C   0  0  0  0  0  0  0  0  0  0  0  0
    3.9569    0.0733    1.1760 H   0  0  0  0  0  0  0  0  0  0  0  0
    4.2508    1.3289   -0.0573 H   0  0  0  0  0  0  0  0  0  0  0  0
    4.6908   -0.3359   -0.3989 H   0  0  0  0  0  0  0  0  0  0  0  0
    0.4144   -1.1368   -0.9195 H   0  0  0  0  0  0  0  0  0  0  0  0
   -0.0034   -1.2867    0.8249 H   0  0  0  0  0  0  0  0  0  0  0  0
   -0.0016    1.3105   -0.8146 H   0  0  0  0  0  0  0  0  0  0  0  0
   -0.4223    1.1593    0.9287 H   0  0  0  0  0  0  0  0  0  0  0  0
   -4.7301   -0.1473    0.6193 H   0  0  0  0  0  0  0  0  0  0  0  0
   -3.9966   -1.3674   -0.4223 H   0  0  0  0  0  0  0  0  0  0  0  0
   -4.1061    0.2981   -1.0022 H   0  0  0  0  0  0  0  0  0  0  0  0
  1  2  1  0  0  0  0
  2  3  2  0  0  0  0
  2  4  1  0  0  0  0
  4  5  1  0  0  0  0
  5  6  1  0  0  0  0
  6  7  1  0  0  0  0
  7  8  1  0  0  0  0
  8  9  2  0  0  0  0
  8 10  1  0  0  0  0
  1 11  1  0  0  0  0
  1 12  1  0  0  0  0
  1 13  1  0  0  0  0
  5 14  1  0  0  0  0
  5 15  1  0  0  0  0
  6 16  1  0  0  0  0
  6 17  1  0  0  0  0
 10 18  1  0  0  0  0
 10 19  1  0  0  0  0
 10 20  1  0  0  0  0
M  END
