 xtb: 6.7.1 (edcfbbe)
          04112516013D

 20 19  0     0  0            999 V2000
   -3.6707    0.0375   -0.7948 C   0  0  0  0  0  0  0  0  0  0  0  0
   -2.6383   -0.2185    0.2967 C   0  0  0  0  0  0  0  0  0  0  0  0
   -1.2577    0.2901   -0.1107 C   0  0  0  0  0  0  0  0  0  0  0  0
   -0.2250    0.0350    0.9832 C   0  0  0  0  0  0  0  0  0  0  0  0
    1.0464    0.6018    0.6399 O   0  0  0  0  0  0  0  0  0  0  0  0
    1.8853   -0.1191   -0.0975 C   0  0  0  0  0  0  0  0  0  0  0  0
    1.6460   -1.2484   -0.4731 O   0  0  0  0  0  0  0  0  0  0  0  0
    3.1443    0.6371   -0.3967 C   0  0  0  0  0  0  0  0  0  0  0  0
   -4.6456   -0.3328   -0.4893 H   0  0  0  0  0  0  0  0  0  0  0  0
   -3.7541    1.1022   -0.9981 H   0  0  0  0  0  0  0  0  0  0  0  0
   -3.3841   -0.4660   -1.7150 H   0  0  0  0  0  0  0  0  0  0  0  0
   -2.9487    0.2806    1.2164 H   0  0  0  0  0  0  0  0  0  0  0  0
   -2.5803   -1.2895    0.5004 H   0  0  0  0  0  0  0  0  0  0  0  0
   -0.9329   -0.2144   -1.0240 H   0  0  0  0  0  0  0  0  0  0  0  0
   -1.3002    1.3624   -0.3115 H   0  0  0  0  0  0  0  0  0  0  0  0
   -0.5090    0.5270    1.9143 H   0  0  0  0  0  0  0  0  0  0  0  0
   -0.0999   -1.0401    1.1468 H   0  0  0  0  0  0  0  0  0  0  0  0
    3.1018    0.9812   -1.4279 H   0  0  0  0  0  0  0  0  0  0  0  0
    3.9977   -0.0270   -0.2978 H   0  0  0  0  0  0  0  0  0  0  0  0
    3.2305    1.4899    0.2675 H   0  0  0  0  0  0  0  0  0  0  0  0
  1  2  1  0  0  0  0
  2  3  1  0  0  0  0
  3  4  1  0  0  0  0
  4  5  1  0  0  0  0
  5  6  1  0  0  0  0
  6  7  2  0  0  0  0
  6  8  1  0  0  0  0
  1  9  1  0  0  0  0
  1 10  1  0  0  0  0
  1 11  1  0  0  0  0
  2 12  1  0  0  0  0
  2 13  1  0  0  0  0
  3 14  1  0  0  0  0
  3 15  1  0  0  0  0
  4 16  1  0  0  0  0
  4 17  1  0  0  0  0
  8 18  1  0  0  0  0
  8 19  1  0  0  0  0
  8 20  1  0  0  0  0
M  END
