 xtb: 6.7.1 (edcfbbe)
          04112514133D

 23 22  0     0  0            999 V2000
    2.4116   -1.1878   -0.3503 C   0  0  0  0  0  0  0  0  0  0  0  0
    1.8675   -0.2289    0.7026 C   0  0  0  0  0  0  0  0  0  0  0  0
    1.1812    0.9979    0.1001 C   0  0  0  0  0  0  0  0  0  0  0  0
   -0.1221    0.7158   -0.6517 C   0  0  0  0  0  0  0  0  0  0  0  0
   -1.2679    0.2016    0.2404 C   0  0  0  0  0  0  0  0  0  0  0  0
   -2.5743    0.9247   -0.0888 C   0  0  0  0  0  0  0  0  0  0  0  0
   -1.4710   -1.3057    0.0896 C   0  0  0  0  0  0  0  0  0  0  0  0
    3.1044   -0.6710   -1.0110 H   0  0  0  0  0  0  0  0  0  0  0  0
    2.9403   -2.0106    0.1257 H   0  0  0  0  0  0  0  0  0  0  0  0
    1.6096   -1.6044   -0.9539 H   0  0  0  0  0  0  0  0  0  0  0  0
    2.6984    0.1161    1.3233 H   0  0  0  0  0  0  0  0  0  0  0  0
    1.1714   -0.7561    1.3567 H   0  0  0  0  0  0  0  0  0  0  0  0
    0.9697    1.7086    0.9034 H   0  0  0  0  0  0  0  0  0  0  0  0
    1.8794    1.4815   -0.5882 H   0  0  0  0  0  0  0  0  0  0  0  0
   -0.4327    1.6519   -1.1208 H   0  0  0  0  0  0  0  0  0  0  0  0
    0.0642    0.0038   -1.4563 H   0  0  0  0  0  0  0  0  0  0  0  0
   -1.0195    0.4149    1.2861 H   0  0  0  0  0  0  0  0  0  0  0  0
   -2.8471    0.7570   -1.1287 H   0  0  0  0  0  0  0  0  0  0  0  0
   -3.3825    0.5583    0.5405 H   0  0  0  0  0  0  0  0  0  0  0  0
   -2.4733    1.9954    0.0737 H   0  0  0  0  0  0  0  0  0  0  0  0
   -2.2542   -1.6521    0.7608 H   0  0  0  0  0  0  0  0  0  0  0  0
   -0.5601   -1.8512    0.3194 H   0  0  0  0  0  0  0  0  0  0  0  0
   -1.7668   -1.5443   -0.9304 H   0  0  0  0  0  0  0  0  0  0  0  0
  1  2  1  0  0  0  0
  2  3  1  0  0  0  0
  3  4  1  0  0  0  0
  4  5  1  0  0  0  0
  5  6  1  0  0  0  0
  5  7  1  0  0  0  0
  1  8  1  0  0  0  0
  1  9  1  0  0  0  0
  1 10  1  0  0  0  0
  2 11  1  0  0  0  0
  2 12  1  0  0  0  0
  3 13  1  0  0  0  0
  3 14  1  0  0  0  0
  4 15  1  0  0  0  0
  4 16  1  0  0  0  0
  5 17  1  0  0  0  0
  6 18  1  0  0  0  0
  6 19  1  0  0  0  0
  6 20  1  0  0  0  0
  7 21  1  0  0  0  0
  7 22  1  0  0  0  0
  7 23  1  0  0  0  0
M  END
