 xtb: 6.7.1 (edcfbbe)
          04112516093D

 19 18  0     0  0            999 V2000
    3.4179   -0.3017   -0.0007 C   0  0  0  0  0  0  0  0  0  0  0  0
    2.1864    0.5959    0.0075 C   0  0  0  0  0  0  0  0  0  0  0  0
    0.8956   -0.2187   -0.0049 C   0  0  0  0  0  0  0  0  0  0  0  0
   -0.3431    0.6720   -0.0012 C   0  0  0  0  0  0  0  0  0  0  0  0
   -1.6338   -0.1039   -0.0003 C   0  0  0  0  0  0  0  0  0  0  0  0
   -1.6723   -1.3193    0.0031 O   0  0  0  0  0  0  0  0  0  0  0  0
   -2.8842    0.7322   -0.0035 C   0  0  0  0  0  0  0  0  0  0  0  0
    3.4271   -0.9268   -0.8908 H   0  0  0  0  0  0  0  0  0  0  0  0
    4.3267    0.2948    0.0110 H   0  0  0  0  0  0  0  0  0  0  0  0
    3.4208   -0.9517    0.8714 H   0  0  0  0  0  0  0  0  0  0  0  0
    2.2098    1.2496   -0.8670 H   0  0  0  0  0  0  0  0  0  0  0  0
    2.2060    1.2282    0.8977 H   0  0  0  0  0  0  0  0  0  0  0  0
    0.8643   -0.8759    0.8671 H   0  0  0  0  0  0  0  0  0  0  0  0
    0.8709   -0.8598   -0.8890 H   0  0  0  0  0  0  0  0  0  0  0  0
   -0.3437    1.3183    0.8799 H   0  0  0  0  0  0  0  0  0  0  0  0
   -0.3462    1.3232   -0.8786 H   0  0  0  0  0  0  0  0  0  0  0  0
   -3.4749    0.4788   -0.8813 H   0  0  0  0  0  0  0  0  0  0  0  0
   -3.4833    0.4743    0.8672 H   0  0  0  0  0  0  0  0  0  0  0  0
   -2.6616    1.7930   -0.0000 H   0  0  0  0  0  0  0  0  0  0  0  0
  1  2  1  0  0  0  0
  2  3  1  0  0  0  0
  3  4  1  0  0  0  0
  4  5  1  0  0  0  0
  5  6  2  0  0  0  0
  5  7  1  0  0  0  0
  1  8  1  0  0  0  0
  1  9  1  0  0  0  0
  1 10  1  0  0  0  0
  2 11  1  0  0  0  0
  2 12  1  0  0  0  0
  3 13  1  0  0  0  0
  3 14  1  0  0  0  0
  4 15  1  0  0  0  0
  4 16  1  0  0  0  0
  7 17  1  0  0  0  0
  7 18  1  0  0  0  0
  7 19  1  0  0  0  0
M  END
