 xtb: 6.7.1 (edcfbbe)
          04112516113D

 17 16  0     0  0            999 V2000
   -4.6856   -0.6960   -0.3353 C   0  0  0  0  0  0  0  0  0  0  0  0
   -3.3467   -0.6754    0.3924 C   0  0  0  0  0  0  0  0  0  0  0  0
   -2.2132   -0.2245   -0.5270 C   0  0  0  0  0  0  0  0  0  0  0  0
   -0.8705   -0.2040    0.2036 C   0  0  0  0  0  0  0  0  0  0  0  0
    0.2338    0.2461   -0.7316 C   0  0  0  0  0  0  0  0  0  0  0  0
    1.9804    0.2816    0.1858 Br  0  0  0  0  0  0  0  0  0  0  0  0
   -5.4777   -1.0185    0.3354 H   0  0  0  0  0  0  0  0  0  0  0  0
   -4.6503   -1.3802   -1.1799 H   0  0  0  0  0  0  0  0  0  0  0  0
   -4.9327    0.2955   -0.7076 H   0  0  0  0  0  0  0  0  0  0  0  0
   -3.4081    0.0008    1.2475 H   0  0  0  0  0  0  0  0  0  0  0  0
   -3.1254   -1.6740    0.7746 H   0  0  0  0  0  0  0  0  0  0  0  0
   -2.1513   -0.9015   -1.3818 H   0  0  0  0  0  0  0  0  0  0  0  0
   -2.4344    0.7746   -0.9086 H   0  0  0  0  0  0  0  0  0  0  0  0
   -0.9276    0.4746    1.0577 H   0  0  0  0  0  0  0  0  0  0  0  0
   -0.6447   -1.2023    0.5849 H   0  0  0  0  0  0  0  0  0  0  0  0
    0.0734    1.2600   -1.0940 H   0  0  0  0  0  0  0  0  0  0  0  0
    0.3594   -0.4347   -1.5717 H   0  0  0  0  0  0  0  0  0  0  0  0
  1  2  1  0  0  0  0
  2  3  1  0  0  0  0
  3  4  1  0  0  0  0
  4  5  1  0  0  0  0
  5  6  1  0  0  0  0
  1  7  1  0  0  0  0
  1  8  1  0  0  0  0
  1  9  1  0  0  0  0
  2 10  1  0  0  0  0
  2 11  1  0  0  0  0
  3 12  1  0  0  0  0
  3 13  1  0  0  0  0
  4 14  1  0  0  0  0
  4 15  1  0  0  0  0
  5 16  1  0  0  0  0
  5 17  1  0  0  0  0
M  END
