 xtb: 6.7.1 (edcfbbe)
          04112516193D

 23 23  0     0  0            999 V2000
   -4.1278   -0.4425   -0.1550 C   0  0  0  0  0  0  0  0  0  0  0  0
   -3.1413    0.5667   -0.0110 O   0  0  0  0  0  0  0  0  0  0  0  0
   -1.8424    0.1976    0.0183 C   0  0  0  0  0  0  0  0  0  0  0  0
   -1.3653   -1.0925   -0.0851 C   0  0  0  0  0  0  0  0  0  0  0  0
    0.0081   -1.3812   -0.0337 C   0  0  0  0  0  0  0  0  0  0  0  0
    0.9203   -0.3270    0.1067 C   0  0  0  0  0  0  0  0  0  0  0  0
    0.4610    0.9846    0.1857 C   0  0  0  0  0  0  0  0  0  0  0  0
   -0.9139    1.2530    0.1640 C   0  0  0  0  0  0  0  0  0  0  0  0
   -1.3615    2.5064    0.2830 O   0  0  0  0  0  0  0  0  0  0  0  0
    1.2812    2.0812    0.3370 O   0  0  0  0  0  0  0  0  0  0  0  0
    2.0366    2.4469   -0.8194 C   0  0  0  0  0  0  0  0  0  0  0  0
    2.6171   -0.6333    0.2211 Cl  0  0  0  0  0  0  0  0  0  0  0  0
    0.4050   -2.7762   -0.1243 C   0  0  0  0  0  0  0  0  0  0  0  0
    1.5335   -3.2285   -0.0967 O   0  0  0  0  0  0  0  0  0  0  0  0
   -4.0058   -0.9782   -1.0988 H   0  0  0  0  0  0  0  0  0  0  0  0
   -5.0761    0.0888   -0.1530 H   0  0  0  0  0  0  0  0  0  0  0  0
   -4.0949   -1.1437    0.6817 H   0  0  0  0  0  0  0  0  0  0  0  0
   -2.0465   -1.9194   -0.1976 H   0  0  0  0  0  0  0  0  0  0  0  0
   -0.6038    3.1037    0.4418 H   0  0  0  0  0  0  0  0  0  0  0  0
    2.7408    1.6637   -1.0992 H   0  0  0  0  0  0  0  0  0  0  0  0
    2.5771    3.3453   -0.5339 H   0  0  0  0  0  0  0  0  0  0  0  0
    1.3701    2.6566   -1.6595 H   0  0  0  0  0  0  0  0  0  0  0  0
   -0.4527   -3.4651   -0.2283 H   0  0  0  0  0  0  0  0  0  0  0  0
  1  2  1  0  0  0  0
  2  3  1  0  0  0  0
  3  4  4  0  0  0  0
  4  5  4  0  0  0  0
  5  6  4  0  0  0  0
  6  7  4  0  0  0  0
  3  8  4  0  0  0  0
  7  8  4  0  0  0  0
  8  9  1  0  0  0  0
  7 10  1  0  0  0  0
 10 11  1  0  0  0  0
  6 12  1  0  0  0  0
  5 13  1  0  0  0  0
 13 14  2  0  0  0  0
  1 15  1  0  0  0  0
  1 16  1  0  0  0  0
  1 17  1  0  0  0  0
  4 18  1  0  0  0  0
  9 19  1  0  0  0  0
 11 20  1  0  0  0  0
 11 21  1  0  0  0  0
 11 22  1  0  0  0  0
 13 23  1  0  0  0  0
M  END
