 xtb: 6.7.1 (edcfbbe)
          04112514233D

 23 22  0     0  0            999 V2000
    1.5066    0.5658   -1.4803 C   0  0  0  0  0  0  0  0  0  0  0  0
    2.1022   -0.1987   -0.3007 C   0  0  0  0  0  0  0  0  0  0  0  0
    3.3621    0.5071    0.1995 C   0  0  0  0  0  0  0  0  0  0  0  0
    1.1028   -0.3419    0.8535 C   0  0  0  0  0  0  0  0  0  0  0  0
   -0.0849   -1.2551    0.5545 C   0  0  0  0  0  0  0  0  0  0  0  0
   -1.0312   -0.6658   -0.3474 O   0  0  0  0  0  0  0  0  0  0  0  0
   -1.9451    0.1609    0.1477 C   0  0  0  0  0  0  0  0  0  0  0  0
   -2.0458    0.4203    1.3295 O   0  0  0  0  0  0  0  0  0  0  0  0
   -2.8189    0.7243   -0.9328 C   0  0  0  0  0  0  0  0  0  0  0  0
    0.6396    0.0477   -1.8798 H   0  0  0  0  0  0  0  0  0  0  0  0
    2.2438    0.6669   -2.2732 H   0  0  0  0  0  0  0  0  0  0  0  0
    1.2013    1.5627   -1.1671 H   0  0  0  0  0  0  0  0  0  0  0  0
    2.3786   -1.2031   -0.6397 H   0  0  0  0  0  0  0  0  0  0  0  0
    4.0863    0.6054   -0.6052 H   0  0  0  0  0  0  0  0  0  0  0  0
    3.8224   -0.0528    1.0098 H   0  0  0  0  0  0  0  0  0  0  0  0
    3.1178    1.5022    0.5648 H   0  0  0  0  0  0  0  0  0  0  0  0
    0.7238    0.6414    1.1423 H   0  0  0  0  0  0  0  0  0  0  0  0
    1.6195   -0.7641    1.7168 H   0  0  0  0  0  0  0  0  0  0  0  0
    0.2380   -2.1716    0.0593 H   0  0  0  0  0  0  0  0  0  0  0  0
   -0.6075   -1.4930    1.4866 H   0  0  0  0  0  0  0  0  0  0  0  0
   -3.7861    0.9906   -0.5190 H   0  0  0  0  0  0  0  0  0  0  0  0
   -2.9189    0.0065   -1.7401 H   0  0  0  0  0  0  0  0  0  0  0  0
   -2.3451    1.6235   -1.3215 H   0  0  0  0  0  0  0  0  0  0  0  0
  1  2  1  0  0  0  0
  2  3  1  0  0  0  0
  2  4  1  0  0  0  0
  4  5  1  0  0  0  0
  5  6  1  0  0  0  0
  6  7  1  0  0  0  0
  7  8  2  0  0  0  0
  7  9  1  0  0  0  0
  1 10  1  0  0  0  0
  1 11  1  0  0  0  0
  1 12  1  0  0  0  0
  2 13  1  0  0  0  0
  3 14  1  0  0  0  0
  3 15  1  0  0  0  0
  3 16  1  0  0  0  0
  4 17  1  0  0  0  0
  4 18  1  0  0  0  0
  5 19  1  0  0  0  0
  5 20  1  0  0  0  0
  9 21  1  0  0  0  0
  9 22  1  0  0  0  0
  9 23  1  0  0  0  0
M  END
