 xtb: 6.7.1 (edcfbbe)
          04112517153D

 20 19  0     0  0            999 V2000
   -3.9237   -0.1665   -0.3234 C   0  0  0  0  0  0  0  0  0  0  0  0
   -2.7012    0.0282    0.5653 C   0  0  0  0  0  0  0  0  0  0  0  0
   -1.4034   -0.1349   -0.2218 C   0  0  0  0  0  0  0  0  0  0  0  0
   -0.1755    0.0470    0.6658 C   0  0  0  0  0  0  0  0  0  0  0  0
    1.1099   -0.0461   -0.1121 C   0  0  0  0  0  0  0  0  0  0  0  0
    1.2074   -0.0475   -1.3203 O   0  0  0  0  0  0  0  0  0  0  0  0
    2.1623   -0.1224    0.7001 O   0  0  0  0  0  0  0  0  0  0  0  0
    3.4575   -0.1957    0.0976 C   0  0  0  0  0  0  0  0  0  0  0  0
   -4.8376   -0.0433    0.2519 H   0  0  0  0  0  0  0  0  0  0  0  0
   -3.9249    0.5598   -1.1328 H   0  0  0  0  0  0  0  0  0  0  0  0
   -3.9225   -1.1626   -0.7596 H   0  0  0  0  0  0  0  0  0  0  0  0
   -2.7311    1.0250    1.0094 H   0  0  0  0  0  0  0  0  0  0  0  0
   -2.7241   -0.7004    1.3781 H   0  0  0  0  0  0  0  0  0  0  0  0
   -1.3662    0.5949   -1.0329 H   0  0  0  0  0  0  0  0  0  0  0  0
   -1.3717   -1.1259   -0.6792 H   0  0  0  0  0  0  0  0  0  0  0  0
   -0.1463   -0.6988    1.4614 H   0  0  0  0  0  0  0  0  0  0  0  0
   -0.1946    1.0300    1.1425 H   0  0  0  0  0  0  0  0  0  0  0  0
    4.1538   -0.3368    0.9178 H   0  0  0  0  0  0  0  0  0  0  0  0
    3.6698    0.7281   -0.4417 H   0  0  0  0  0  0  0  0  0  0  0  0
    3.4971   -1.0318   -0.6015 H   0  0  0  0  0  0  0  0  0  0  0  0
  1  2  1  0  0  0  0
  2  3  1  0  0  0  0
  3  4  1  0  0  0  0
  4  5  1  0  0  0  0
  5  6  2  0  0  0  0
  5  7  1  0  0  0  0
  7  8  1  0  0  0  0
  1  9  1  0  0  0  0
  1 10  1  0  0  0  0
  1 11  1  0  0  0  0
  2 12  1  0  0  0  0
  2 13  1  0  0  0  0
  3 14  1  0  0  0  0
  3 15  1  0  0  0  0
  4 16  1  0  0  0  0
  4 17  1  0  0  0  0
  8 18  1  0  0  0  0
  8 19  1  0  0  0  0
  8 20  1  0  0  0  0
M  END
