 xtb: 6.7.1 (edcfbbe)
          04112516113D

 17 16  0     0  0            999 V2000
   -2.3055    0.2179    1.1120 C   0  0  0  0  0  0  0  0  0  0  0  0
   -1.7735   -0.5004   -0.1237 C   0  0  0  0  0  0  0  0  0  0  0  0
   -0.9956    0.4150   -1.0707 C   0  0  0  0  0  0  0  0  0  0  0  0
    0.2744    0.9953   -0.4415 C   0  0  0  0  0  0  0  0  0  0  0  0
    1.2485   -0.0883   -0.0664 C   0  0  0  0  0  0  0  0  0  0  0  0
    1.5866   -1.0030   -0.7880 O   0  0  0  0  0  0  0  0  0  0  0  0
    1.7239    0.0591    1.1615 O   0  0  0  0  0  0  0  0  0  0  0  0
   -1.4938    0.5425    1.7577 H   0  0  0  0  0  0  0  0  0  0  0  0
   -2.8901    1.0876    0.8217 H   0  0  0  0  0  0  0  0  0  0  0  0
   -2.9441   -0.4494    1.6853 H   0  0  0  0  0  0  0  0  0  0  0  0
   -2.6137   -0.9257   -0.6765 H   0  0  0  0  0  0  0  0  0  0  0  0
   -1.1306   -1.3299    0.1817 H   0  0  0  0  0  0  0  0  0  0  0  0
   -0.7093   -0.1579   -1.9550 H   0  0  0  0  0  0  0  0  0  0  0  0
   -1.6365    1.2389   -1.3866 H   0  0  0  0  0  0  0  0  0  0  0  0
    0.0509    1.5867    0.4443 H   0  0  0  0  0  0  0  0  0  0  0  0
    0.7716    1.6352   -1.1735 H   0  0  0  0  0  0  0  0  0  0  0  0
    2.3688   -0.6328    1.4061 H   0  0  0  0  0  0  0  0  0  0  0  0
  1  2  1  0  0  0  0
  2  3  1  0  0  0  0
  3  4  1  0  0  0  0
  4  5  1  0  0  0  0
  5  6  2  0  0  0  0
  5  7  1  0  0  0  0
  1  8  1  0  0  0  0
  1  9  1  0  0  0  0
  1 10  1  0  0  0  0
  2 11  1  0  0  0  0
  2 12  1  0  0  0  0
  3 13  1  0  0  0  0
  3 14  1  0  0  0  0
  4 15  1  0  0  0  0
  4 16  1  0  0  0  0
  7 17  1  0  0  0  0
M  END
