 xtb: 6.7.1 (edcfbbe)
          04112514233D

 23 22  0     0  0            999 V2000
    1.5394    1.5081    0.1853 C   0  0  0  0  0  0  0  0  0  0  0  0
    1.9097    0.1322   -0.3651 C   0  0  0  0  0  0  0  0  0  0  0  0
    3.4301    0.0050   -0.4567 C   0  0  0  0  0  0  0  0  0  0  0  0
    1.3416   -0.9970    0.5073 C   0  0  0  0  0  0  0  0  0  0  0  0
   -0.1148   -1.3440    0.2184 C   0  0  0  0  0  0  0  0  0  0  0  0
   -0.9942   -0.3085    0.6806 O   0  0  0  0  0  0  0  0  0  0  0  0
   -1.9845    0.0985   -0.1017 C   0  0  0  0  0  0  0  0  0  0  0  0
   -2.2059   -0.3601   -1.2048 O   0  0  0  0  0  0  0  0  0  0  0  0
   -2.7821    1.1929    0.5433 C   0  0  0  0  0  0  0  0  0  0  0  0
    1.9139    2.2907   -0.4706 H   0  0  0  0  0  0  0  0  0  0  0  0
    1.9767    1.6476    1.1715 H   0  0  0  0  0  0  0  0  0  0  0  0
    0.4622    1.6184    0.2694 H   0  0  0  0  0  0  0  0  0  0  0  0
    1.4921    0.0346   -1.3743 H   0  0  0  0  0  0  0  0  0  0  0  0
    3.8722    0.0541    0.5355 H   0  0  0  0  0  0  0  0  0  0  0  0
    3.8419    0.8126   -1.0568 H   0  0  0  0  0  0  0  0  0  0  0  0
    3.7115   -0.9398   -0.9152 H   0  0  0  0  0  0  0  0  0  0  0  0
    1.4379   -0.7304    1.5603 H   0  0  0  0  0  0  0  0  0  0  0  0
    1.9163   -1.9071    0.3312 H   0  0  0  0  0  0  0  0  0  0  0  0
   -0.2853   -1.4909   -0.8532 H   0  0  0  0  0  0  0  0  0  0  0  0
   -0.3975   -2.2558    0.7531 H   0  0  0  0  0  0  0  0  0  0  0  0
   -3.8368    0.9349    0.5056 H   0  0  0  0  0  0  0  0  0  0  0  0
   -2.6432    2.1091   -0.0263 H   0  0  0  0  0  0  0  0  0  0  0  0
   -2.4561    1.3362    1.5676 H   0  0  0  0  0  0  0  0  0  0  0  0
  1  2  1  0  0  0  0
  2  3  1  0  0  0  0
  2  4  1  0  0  0  0
  4  5  1  0  0  0  0
  5  6  1  0  0  0  0
  6  7  1  0  0  0  0
  7  8  2  0  0  0  0
  7  9  1  0  0  0  0
  1 10  1  0  0  0  0
  1 11  1  0  0  0  0
  1 12  1  0  0  0  0
  2 13  1  0  0  0  0
  3 14  1  0  0  0  0
  3 15  1  0  0  0  0
  3 16  1  0  0  0  0
  4 17  1  0  0  0  0
  4 18  1  0  0  0  0
  5 19  1  0  0  0  0
  5 20  1  0  0  0  0
  9 21  1  0  0  0  0
  9 22  1  0  0  0  0
  9 23  1  0  0  0  0
M  END
