 xtb: 6.7.1 (edcfbbe)
          04112516123D

 19 18  0     0  0            999 V2000
   -1.8584   -1.1688   -0.5557 C   0  0  0  0  0  0  0  0  0  0  0  0
   -1.9607    0.2600   -0.0301 C   0  0  0  0  0  0  0  0  0  0  0  0
   -0.8575    0.6058    0.9819 C   0  0  0  0  0  0  0  0  0  0  0  0
    0.2803    1.4466    0.4001 C   0  0  0  0  0  0  0  0  0  0  0  0
    1.0720    0.7407   -0.7072 C   0  0  0  0  0  0  0  0  0  0  0  0
    1.6819   -0.4867   -0.2386 C   0  0  0  0  0  0  0  0  0  0  0  0
    2.1769   -1.4996    0.1639 C   0  0  0  0  0  0  0  0  0  0  0  0
   -2.6220   -1.3524   -1.3086 H   0  0  0  0  0  0  0  0  0  0  0  0
   -2.0023   -1.8784    0.2563 H   0  0  0  0  0  0  0  0  0  0  0  0
   -0.8837   -1.3596   -0.9967 H   0  0  0  0  0  0  0  0  0  0  0  0
   -1.9235    0.9613   -0.8663 H   0  0  0  0  0  0  0  0  0  0  0  0
   -2.9373    0.3795    0.4438 H   0  0  0  0  0  0  0  0  0  0  0  0
   -0.4421   -0.3162    1.3935 H   0  0  0  0  0  0  0  0  0  0  0  0
   -1.2907    1.1687    1.8115 H   0  0  0  0  0  0  0  0  0  0  0  0
    0.9665    1.7080    1.2095 H   0  0  0  0  0  0  0  0  0  0  0  0
   -0.1285    2.3751   -0.0052 H   0  0  0  0  0  0  0  0  0  0  0  0
    1.8624    1.4066   -1.0650 H   0  0  0  0  0  0  0  0  0  0  0  0
    0.4162    0.5128   -1.5506 H   0  0  0  0  0  0  0  0  0  0  0  0
    2.6154   -2.3877    0.5084 H   0  0  0  0  0  0  0  0  0  0  0  0
  1  2  1  0  0  0  0
  2  3  1  0  0  0  0
  3  4  1  0  0  0  0
  4  5  1  0  0  0  0
  5  6  1  0  0  0  0
  6  7  3  0  0  0  0
  1  8  1  0  0  0  0
  1  9  1  0  0  0  0
  1 10  1  0  0  0  0
  2 11  1  0  0  0  0
  2 12  1  0  0  0  0
  3 13  1  0  0  0  0
  3 14  1  0  0  0  0
  4 15  1  0  0  0  0
  4 16  1  0  0  0  0
  5 17  1  0  0  0  0
  5 18  1  0  0  0  0
  7 19  1  0  0  0  0
M  END
