 xtb: 6.7.1 (edcfbbe)
          04112516123D

 19 18  0     0  0            999 V2000
   -2.7612    0.2564    0.5499 C   0  0  0  0  0  0  0  0  0  0  0  0
   -1.6905   -0.7164    0.0674 C   0  0  0  0  0  0  0  0  0  0  0  0
   -0.7461   -0.1130   -0.9745 C   0  0  0  0  0  0  0  0  0  0  0  0
    0.0735    1.0834   -0.4888 C   0  0  0  0  0  0  0  0  0  0  0  0
    1.0388    0.7411    0.6529 C   0  0  0  0  0  0  0  0  0  0  0  0
    1.9948   -0.2757    0.2652 C   0  0  0  0  0  0  0  0  0  0  0  0
    2.7779   -1.1154   -0.0734 C   0  0  0  0  0  0  0  0  0  0  0  0
   -2.3232    1.0791    1.1090 H   0  0  0  0  0  0  0  0  0  0  0  0
   -3.4669   -0.2547    1.2007 H   0  0  0  0  0  0  0  0  0  0  0  0
   -3.3094    0.6668   -0.2954 H   0  0  0  0  0  0  0  0  0  0  0  0
   -1.1160   -1.0830    0.9198 H   0  0  0  0  0  0  0  0  0  0  0  0
   -2.1796   -1.5823   -0.3853 H   0  0  0  0  0  0  0  0  0  0  0  0
   -1.3360    0.2033   -1.8385 H   0  0  0  0  0  0  0  0  0  0  0  0
   -0.0563   -0.8915   -1.3102 H   0  0  0  0  0  0  0  0  0  0  0  0
   -0.5930    1.8806   -0.1569 H   0  0  0  0  0  0  0  0  0  0  0  0
    0.6527    1.4653   -1.3332 H   0  0  0  0  0  0  0  0  0  0  0  0
    0.4831    0.3892    1.5251 H   0  0  0  0  0  0  0  0  0  0  0  0
    1.5875    1.6414    0.9433 H   0  0  0  0  0  0  0  0  0  0  0  0
    3.4686   -1.8504   -0.3607 H   0  0  0  0  0  0  0  0  0  0  0  0
  1  2  1  0  0  0  0
  2  3  1  0  0  0  0
  3  4  1  0  0  0  0
  4  5  1  0  0  0  0
  5  6  1  0  0  0  0
  6  7  3  0  0  0  0
  1  8  1  0  0  0  0
  1  9  1  0  0  0  0
  1 10  1  0  0  0  0
  2 11  1  0  0  0  0
  2 12  1  0  0  0  0
  3 13  1  0  0  0  0
  3 14  1  0  0  0  0
  4 15  1  0  0  0  0
  4 16  1  0  0  0  0
  5 17  1  0  0  0  0
  5 18  1  0  0  0  0
  7 19  1  0  0  0  0
M  END
