 xtb: 6.7.1 (edcfbbe)
          04112516153D

 26 25  0     0  0            999 V2000
    2.9108   -0.9298   -0.3596 C   0  0  0  0  0  0  0  0  0  0  0  0
    1.5154   -0.3456   -0.1435 C   0  0  0  0  0  0  0  0  0  0  0  0
    0.9250   -0.8135    1.1790 C   0  0  0  0  0  0  0  0  0  0  0  0
    0.7205   -0.6403   -1.3782 C   0  0  0  0  0  0  0  0  0  0  0  0
   -0.4401   -1.0650   -1.6220 N   0  0  0  0  0  0  0  0  0  0  0  0
   -1.3270   -1.3712   -0.5558 O   0  0  0  0  0  0  0  0  0  0  0  0
   -2.0144   -0.3241   -0.0130 C   0  0  0  0  0  0  0  0  0  0  0  0
   -1.7648    0.8428   -0.2476 O   0  0  0  0  0  0  0  0  0  0  0  0
   -2.9561   -0.7915    0.8079 N   0  0  0  0  0  0  0  0  0  0  0  0
   -3.8557    0.0693    1.5434 C   0  0  0  0  0  0  0  0  0  0  0  0
    1.5642    1.5276   -0.1838 S   0  0  0  0  0  0  0  0  0  0  0  0
    3.0339    1.8951    0.8331 C   0  0  0  0  0  0  0  0  0  0  0  0
    2.8247   -2.0027   -0.5203 H   0  0  0  0  0  0  0  0  0  0  0  0
    3.3863   -0.4832   -1.2291 H   0  0  0  0  0  0  0  0  0  0  0  0
    3.5337   -0.7630    0.5141 H   0  0  0  0  0  0  0  0  0  0  0  0
    0.0364   -0.2390    1.4323 H   0  0  0  0  0  0  0  0  0  0  0  0
    1.6533   -0.6783    1.9753 H   0  0  0  0  0  0  0  0  0  0  0  0
    0.6627   -1.8684    1.1221 H   0  0  0  0  0  0  0  0  0  0  0  0
    1.2640   -0.4587   -2.2996 H   0  0  0  0  0  0  0  0  0  0  0  0
   -3.0674   -1.7914    0.8809 H   0  0  0  0  0  0  0  0  0  0  0  0
   -3.5845    1.1003    1.3255 H   0  0  0  0  0  0  0  0  0  0  0  0
   -3.7585   -0.1159    2.6122 H   0  0  0  0  0  0  0  0  0  0  0  0
   -4.8847   -0.1073    1.2329 H   0  0  0  0  0  0  0  0  0  0  0  0
    3.9355    1.5897    0.3151 H   0  0  0  0  0  0  0  0  0  0  0  0
    2.9426    1.4168    1.8018 H   0  0  0  0  0  0  0  0  0  0  0  0
    3.0208    2.9731    0.9516 H   0  0  0  0  0  0  0  0  0  0  0  0
  1  2  1  0  0  0  0
  2  3  1  0  0  0  0
  2  4  1  0  0  0  0
  4  5  2  0  0  0  0
  5  6  1  0  0  0  0
  6  7  1  0  0  0  0
  7  8  2  0  0  0  0
  7  9  4  0  0  0  0
  9 10  1  0  0  0  0
  2 11  1  0  0  0  0
 11 12  1  0  0  0  0
  1 13  1  0  0  0  0
  1 14  1  0  0  0  0
  1 15  1  0  0  0  0
  3 16  1  0  0  0  0
  3 17  1  0  0  0  0
  3 18  1  0  0  0  0
  4 19  1  0  0  0  0
  9 20  1  0  0  0  0
 10 21  1  0  0  0  0
 10 22  1  0  0  0  0
 10 23  1  0  0  0  0
 12 24  1  0  0  0  0
 12 25  1  0  0  0  0
 12 26  1  0  0  0  0
M  END
