 xtb: 6.7.1 (edcfbbe)
          04112517153D

 20 19  0     0  0            999 V2000
   -3.3177   -0.8639    0.2636 C   0  0  0  0  0  0  0  0  0  0  0  0
   -1.9167   -0.6007   -0.2753 C   0  0  0  0  0  0  0  0  0  0  0  0
   -1.5059    0.8579   -0.0845 C   0  0  0  0  0  0  0  0  0  0  0  0
   -0.1153    1.1390   -0.6605 C   0  0  0  0  0  0  0  0  0  0  0  0
    0.9492    0.4116    0.1184 C   0  0  0  0  0  0  0  0  0  0  0  0
    1.0743    0.4358    1.3247 O   0  0  0  0  0  0  0  0  0  0  0  0
    1.7621   -0.2729   -0.6804 O   0  0  0  0  0  0  0  0  0  0  0  0
    2.8340   -0.9976   -0.0714 C   0  0  0  0  0  0  0  0  0  0  0  0
   -4.0452   -0.2411   -0.2513 H   0  0  0  0  0  0  0  0  0  0  0  0
   -3.5923   -1.9057    0.1206 H   0  0  0  0  0  0  0  0  0  0  0  0
   -3.3636   -0.6385    1.3265 H   0  0  0  0  0  0  0  0  0  0  0  0
   -1.2008   -1.2453    0.2414 H   0  0  0  0  0  0  0  0  0  0  0  0
   -1.8823   -0.8506   -1.3379 H   0  0  0  0  0  0  0  0  0  0  0  0
   -1.4979    1.0965    0.9810 H   0  0  0  0  0  0  0  0  0  0  0  0
   -2.2314    1.5068   -0.5763 H   0  0  0  0  0  0  0  0  0  0  0  0
    0.0989    2.2065   -0.5832 H   0  0  0  0  0  0  0  0  0  0  0  0
   -0.0508    0.8354   -1.7046 H   0  0  0  0  0  0  0  0  0  0  0  0
    3.3835   -1.4512   -0.8900 H   0  0  0  0  0  0  0  0  0  0  0  0
    2.4349   -1.7573    0.6016 H   0  0  0  0  0  0  0  0  0  0  0  0
    3.4676   -0.3171    0.4985 H   0  0  0  0  0  0  0  0  0  0  0  0
  1  2  1  0  0  0  0
  2  3  1  0  0  0  0
  3  4  1  0  0  0  0
  4  5  1  0  0  0  0
  5  6  2  0  0  0  0
  5  7  1  0  0  0  0
  7  8  1  0  0  0  0
  1  9  1  0  0  0  0
  1 10  1  0  0  0  0
  1 11  1  0  0  0  0
  2 12  1  0  0  0  0
  2 13  1  0  0  0  0
  3 14  1  0  0  0  0
  3 15  1  0  0  0  0
  4 16  1  0  0  0  0
  4 17  1  0  0  0  0
  8 18  1  0  0  0  0
  8 19  1  0  0  0  0
  8 20  1  0  0  0  0
M  END
