 xtb: 6.7.1 (edcfbbe)
          04112516153D

 26 25  0     0  0            999 V2000
    3.3957   -0.4307   -0.8314 C   0  0  0  0  0  0  0  0  0  0  0  0
    1.9610   -0.5667   -0.3386 C   0  0  0  0  0  0  0  0  0  0  0  0
    1.7247   -1.9522    0.2664 C   0  0  0  0  0  0  0  0  0  0  0  0
    0.9863   -0.3038   -1.4426 C   0  0  0  0  0  0  0  0  0  0  0  0
   -0.2714   -0.1971   -1.4208 N   0  0  0  0  0  0  0  0  0  0  0  0
   -0.8836   -0.3358   -0.1621 O   0  0  0  0  0  0  0  0  0  0  0  0
   -2.2333   -0.0661   -0.1549 C   0  0  0  0  0  0  0  0  0  0  0  0
   -2.8695    0.2528   -1.1354 O   0  0  0  0  0  0  0  0  0  0  0  0
   -2.6925   -0.2142    1.0875 N   0  0  0  0  0  0  0  0  0  0  0  0
   -4.0759    0.0087    1.4444 C   0  0  0  0  0  0  0  0  0  0  0  0
    1.6655    0.6483    1.0465 S   0  0  0  0  0  0  0  0  0  0  0  0
    1.6434    2.2408    0.1764 C   0  0  0  0  0  0  0  0  0  0  0  0
    3.5654    0.5431   -1.2847 H   0  0  0  0  0  0  0  0  0  0  0  0
    4.0826   -0.5516    0.0023 H   0  0  0  0  0  0  0  0  0  0  0  0
    3.6050   -1.1978   -1.5736 H   0  0  0  0  0  0  0  0  0  0  0  0
    1.9202   -2.7174   -0.4811 H   0  0  0  0  0  0  0  0  0  0  0  0
    0.6984   -2.0476    0.6107 H   0  0  0  0  0  0  0  0  0  0  0  0
    2.3916   -2.0974    1.1122 H   0  0  0  0  0  0  0  0  0  0  0  0
    1.3881   -0.1721   -2.4389 H   0  0  0  0  0  0  0  0  0  0  0  0
   -2.0365   -0.4537    1.8160 H   0  0  0  0  0  0  0  0  0  0  0  0
   -4.6184    0.2618    0.5359 H   0  0  0  0  0  0  0  0  0  0  0  0
   -4.1539    0.8301    2.1554 H   0  0  0  0  0  0  0  0  0  0  0  0
   -4.4982   -0.8947    1.8817 H   0  0  0  0  0  0  0  0  0  0  0  0
    0.8246    2.2606   -0.5376 H   0  0  0  0  0  0  0  0  0  0  0  0
    2.5956    2.4101   -0.3154 H   0  0  0  0  0  0  0  0  0  0  0  0
    1.4849    2.9904    0.9445 H   0  0  0  0  0  0  0  0  0  0  0  0
  1  2  1  0  0  0  0
  2  3  1  0  0  0  0
  2  4  1  0  0  0  0
  4  5  2  0  0  0  0
  5  6  1  0  0  0  0
  6  7  1  0  0  0  0
  7  8  2  0  0  0  0
  7  9  4  0  0  0  0
  9 10  1  0  0  0  0
  2 11  1  0  0  0  0
 11 12  1  0  0  0  0
  1 13  1  0  0  0  0
  1 14  1  0  0  0  0
  1 15  1  0  0  0  0
  3 16  1  0  0  0  0
  3 17  1  0  0  0  0
  3 18  1  0  0  0  0
  4 19  1  0  0  0  0
  9 20  1  0  0  0  0
 10 21  1  0  0  0  0
 10 22  1  0  0  0  0
 10 23  1  0  0  0  0
 12 24  1  0  0  0  0
 12 25  1  0  0  0  0
 12 26  1  0  0  0  0
M  END
