 xtb: 6.7.1 (edcfbbe)
          04112514233D

 23 22  0     0  0            999 V2000
    2.4603    1.2628    0.9719 C   0  0  0  0  0  0  0  0  0  0  0  0
    2.3649    0.4229   -0.3005 C   0  0  0  0  0  0  0  0  0  0  0  0
    3.1668   -0.8689   -0.1527 C   0  0  0  0  0  0  0  0  0  0  0  0
    0.9083    0.1549   -0.7029 C   0  0  0  0  0  0  0  0  0  0  0  0
    0.1000   -0.6272    0.3298 C   0  0  0  0  0  0  0  0  0  0  0  0
   -1.2126   -0.9121   -0.1767 O   0  0  0  0  0  0  0  0  0  0  0  0
   -2.1669   -0.0023   -0.0151 C   0  0  0  0  0  0  0  0  0  0  0  0
   -1.9936    1.0590    0.5483 O   0  0  0  0  0  0  0  0  0  0  0  0
   -3.4723   -0.4672   -0.5877 C   0  0  0  0  0  0  0  0  0  0  0  0
    3.4870    1.5819    1.1328 H   0  0  0  0  0  0  0  0  0  0  0  0
    2.1443    0.6898    1.8398 H   0  0  0  0  0  0  0  0  0  0  0  0
    1.8330    2.1478    0.8955 H   0  0  0  0  0  0  0  0  0  0  0  0
    2.8051    1.0019   -1.1203 H   0  0  0  0  0  0  0  0  0  0  0  0
    2.8355   -1.4345    0.7139 H   0  0  0  0  0  0  0  0  0  0  0  0
    4.2207   -0.6375   -0.0210 H   0  0  0  0  0  0  0  0  0  0  0  0
    3.0602   -1.4906   -1.0379 H   0  0  0  0  0  0  0  0  0  0  0  0
    0.8909   -0.4042   -1.6411 H   0  0  0  0  0  0  0  0  0  0  0  0
    0.4040    1.1101   -0.8717 H   0  0  0  0  0  0  0  0  0  0  0  0
    0.5369   -1.6061    0.5244 H   0  0  0  0  0  0  0  0  0  0  0  0
   -0.0014   -0.0577    1.2575 H   0  0  0  0  0  0  0  0  0  0  0  0
   -4.0549   -0.9197    0.2121 H   0  0  0  0  0  0  0  0  0  0  0  0
   -3.2948   -1.2075   -1.3602 H   0  0  0  0  0  0  0  0  0  0  0  0
   -4.0241    0.3839   -0.9743 H   0  0  0  0  0  0  0  0  0  0  0  0
  1  2  1  0  0  0  0
  2  3  1  0  0  0  0
  2  4  1  0  0  0  0
  4  5  1  0  0  0  0
  5  6  1  0  0  0  0
  6  7  1  0  0  0  0
  7  8  2  0  0  0  0
  7  9  1  0  0  0  0
  1 10  1  0  0  0  0
  1 11  1  0  0  0  0
  1 12  1  0  0  0  0
  2 13  1  0  0  0  0
  3 14  1  0  0  0  0
  3 15  1  0  0  0  0
  3 16  1  0  0  0  0
  4 17  1  0  0  0  0
  4 18  1  0  0  0  0
  5 19  1  0  0  0  0
  5 20  1  0  0  0  0
  9 21  1  0  0  0  0
  9 22  1  0  0  0  0
  9 23  1  0  0  0  0
M  END
