 xtb: 6.7.1 (edcfbbe)
          04112514483D

 18 17  0     0  0            999 V2000
    2.4769   -0.2099   -0.7868 C   0  0  0  0  0  0  0  0  0  0  0  0
    1.9360    0.1530    0.5918 C   0  0  0  0  0  0  0  0  0  0  0  0
    0.4761   -0.2545    0.7932 C   0  0  0  0  0  0  0  0  0  0  0  0
   -0.4980    0.5328   -0.0897 C   0  0  0  0  0  0  0  0  0  0  0  0
   -1.9158    0.1897    0.2379 C   0  0  0  0  0  0  0  0  0  0  0  0
   -2.7757   -0.3398   -0.6120 C   0  0  0  0  0  0  0  0  0  0  0  0
    2.3458   -1.2728   -0.9777 H   0  0  0  0  0  0  0  0  0  0  0  0
    3.5377    0.0215   -0.8474 H   0  0  0  0  0  0  0  0  0  0  0  0
    1.9644    0.3467   -1.5667 H   0  0  0  0  0  0  0  0  0  0  0  0
    2.5417   -0.3481    1.3505 H   0  0  0  0  0  0  0  0  0  0  0  0
    2.0345    1.2296    0.7484 H   0  0  0  0  0  0  0  0  0  0  0  0
    0.3646   -1.3210    0.5843 H   0  0  0  0  0  0  0  0  0  0  0  0
    0.2080   -0.0929    1.8402 H   0  0  0  0  0  0  0  0  0  0  0  0
   -0.3406    1.6016    0.0818 H   0  0  0  0  0  0  0  0  0  0  0  0
   -0.3062    0.3213   -1.1419 H   0  0  0  0  0  0  0  0  0  0  0  0
   -2.2161    0.3936    1.2581 H   0  0  0  0  0  0  0  0  0  0  0  0
   -3.7877   -0.5761   -0.3305 H   0  0  0  0  0  0  0  0  0  0  0  0
   -2.5024   -0.5555   -1.6321 H   0  0  0  0  0  0  0  0  0  0  0  0
  1  2  1  0  0  0  0
  2  3  1  0  0  0  0
  3  4  1  0  0  0  0
  4  5  1  0  0  0  0
  5  6  2  0  0  0  0
  1  7  1  0  0  0  0
  1  8  1  0  0  0  0
  1  9  1  0  0  0  0
  2 10  1  0  0  0  0
  2 11  1  0  0  0  0
  3 12  1  0  0  0  0
  3 13  1  0  0  0  0
  4 14  1  0  0  0  0
  4 15  1  0  0  0  0
  5 16  1  0  0  0  0
  6 17  1  0  0  0  0
  6 18  1  0  0  0  0
M  END
