 xtb: 6.7.1 (edcfbbe)
          04112516213D

 19 18  0     0  0            999 V2000
    2.3389   -0.7958    0.1187 C   0  0  0  0  0  0  0  0  0  0  0  0
    1.6080    0.4268    0.6624 C   0  0  0  0  0  0  0  0  0  0  0  0
    0.8295    1.1875   -0.4121 C   0  0  0  0  0  0  0  0  0  0  0  0
   -0.2619    0.3446   -1.0886 C   0  0  0  0  0  0  0  0  0  0  0  0
   -1.2116   -0.2772   -0.0939 C   0  0  0  0  0  0  0  0  0  0  0  0
   -1.2569   -1.4801    0.0825 O   0  0  0  0  0  0  0  0  0  0  0  0
   -2.0994    0.6750    0.6511 C   0  0  0  0  0  0  0  0  0  0  0  0
    1.6308   -1.5617   -0.1888 H   0  0  0  0  0  0  0  0  0  0  0  0
    2.9566   -0.5252   -0.7346 H   0  0  0  0  0  0  0  0  0  0  0  0
    2.9800   -1.2227    0.8861 H   0  0  0  0  0  0  0  0  0  0  0  0
    2.3357    1.1099    1.1063 H   0  0  0  0  0  0  0  0  0  0  0  0
    0.9262    0.1072    1.4545 H   0  0  0  0  0  0  0  0  0  0  0  0
    1.5240    1.5231   -1.1844 H   0  0  0  0  0  0  0  0  0  0  0  0
    0.3785    2.0736    0.0365 H   0  0  0  0  0  0  0  0  0  0  0  0
   -0.8314    0.9865   -1.7615 H   0  0  0  0  0  0  0  0  0  0  0  0
    0.1969   -0.4548   -1.6712 H   0  0  0  0  0  0  0  0  0  0  0  0
   -1.4925    1.3761    1.2179 H   0  0  0  0  0  0  0  0  0  0  0  0
   -2.6960    1.2447   -0.0565 H   0  0  0  0  0  0  0  0  0  0  0  0
   -2.7516    0.1286    1.3268 H   0  0  0  0  0  0  0  0  0  0  0  0
  1  2  1  0  0  0  0
  2  3  1  0  0  0  0
  3  4  1  0  0  0  0
  4  5  1  0  0  0  0
  5  6  2  0  0  0  0
  5  7  1  0  0  0  0
  1  8  1  0  0  0  0
  1  9  1  0  0  0  0
  1 10  1  0  0  0  0
  2 11  1  0  0  0  0
  2 12  1  0  0  0  0
  3 13  1  0  0  0  0
  3 14  1  0  0  0  0
  4 15  1  0  0  0  0
  4 16  1  0  0  0  0
  7 17  1  0  0  0  0
  7 18  1  0  0  0  0
  7 19  1  0  0  0  0
M  END
