 xtb: 6.7.1 (edcfbbe)
          04112514203D

 23 22  0     0  0            999 V2000
    3.1904   -0.4441    0.4986 C   0  0  0  0  0  0  0  0  0  0  0  0
    1.7056   -0.6393    0.2124 C   0  0  0  0  0  0  0  0  0  0  0  0
    1.1114    0.5665   -0.5117 C   0  0  0  0  0  0  0  0  0  0  0  0
   -0.3474    0.3864   -0.9365 C   0  0  0  0  0  0  0  0  0  0  0  0
   -1.3408    0.2708    0.2347 C   0  0  0  0  0  0  0  0  0  0  0  0
   -2.5986    1.0952   -0.0415 C   0  0  0  0  0  0  0  0  0  0  0  0
   -1.7348   -1.1820    0.4985 C   0  0  0  0  0  0  0  0  0  0  0  0
    3.5970   -1.3083    1.0184 H   0  0  0  0  0  0  0  0  0  0  0  0
    3.7434   -0.3088   -0.4284 H   0  0  0  0  0  0  0  0  0  0  0  0
    3.3454    0.4352    1.1200 H   0  0  0  0  0  0  0  0  0  0  0  0
    1.1802   -0.7979    1.1554 H   0  0  0  0  0  0  0  0  0  0  0  0
    1.5706   -1.5315   -0.4035 H   0  0  0  0  0  0  0  0  0  0  0  0
    1.1913    1.4460    0.1322 H   0  0  0  0  0  0  0  0  0  0  0  0
    1.7081    0.7617   -1.4068 H   0  0  0  0  0  0  0  0  0  0  0  0
   -0.6202    1.2496   -1.5474 H   0  0  0  0  0  0  0  0  0  0  0  0
   -0.4293   -0.4979   -1.5718 H   0  0  0  0  0  0  0  0  0  0  0  0
   -0.8657    0.6721    1.1366 H   0  0  0  0  0  0  0  0  0  0  0  0
   -3.3025    1.0048    0.7829 H   0  0  0  0  0  0  0  0  0  0  0  0
   -2.3506    2.1469   -0.1654 H   0  0  0  0  0  0  0  0  0  0  0  0
   -3.0870    0.7459   -0.9488 H   0  0  0  0  0  0  0  0  0  0  0  0
   -2.2685   -1.5866   -0.3592 H   0  0  0  0  0  0  0  0  0  0  0  0
   -2.3868   -1.2469    1.3671 H   0  0  0  0  0  0  0  0  0  0  0  0
   -0.8601   -1.7998    0.6801 H   0  0  0  0  0  0  0  0  0  0  0  0
  1  2  1  0  0  0  0
  2  3  1  0  0  0  0
  3  4  1  0  0  0  0
  4  5  1  0  0  0  0
  5  6  1  0  0  0  0
  5  7  1  0  0  0  0
  1  8  1  0  0  0  0
  1  9  1  0  0  0  0
  1 10  1  0  0  0  0
  2 11  1  0  0  0  0
  2 12  1  0  0  0  0
  3 13  1  0  0  0  0
  3 14  1  0  0  0  0
  4 15  1  0  0  0  0
  4 16  1  0  0  0  0
  5 17  1  0  0  0  0
  6 18  1  0  0  0  0
  6 19  1  0  0  0  0
  6 20  1  0  0  0  0
  7 21  1  0  0  0  0
  7 22  1  0  0  0  0
  7 23  1  0  0  0  0
M  END
