 xtb: 6.7.1 (edcfbbe)
          04112514243D

 14 13  0     0  0            999 V2000
    0.3463   -0.2846    0.6183 C   0  0  0  0  0  0  0  0  0  0  0  0
   -0.3464    0.2883   -0.6173 C   0  0  0  0  0  0  0  0  0  0  0  0
   -1.7303   -0.2957   -0.8274 C   0  0  0  0  0  0  0  0  0  0  0  0
   -2.8469    0.1837    0.5031 Cl  0  0  0  0  0  0  0  0  0  0  0  0
    1.7312    0.2976    0.8269 C   0  0  0  0  0  0  0  0  0  0  0  0
    2.8466   -0.1860   -0.5032 Cl  0  0  0  0  0  0  0  0  0  0  0  0
    0.4157   -1.3697    0.5295 H   0  0  0  0  0  0  0  0  0  0  0  0
   -0.2468   -0.0525    1.5049 H   0  0  0  0  0  0  0  0  0  0  0  0
    0.2476    0.0576   -1.5037 H   0  0  0  0  0  0  0  0  0  0  0  0
   -0.4173    1.3733   -0.5278 H   0  0  0  0  0  0  0  0  0  0  0  0
   -2.1841    0.0744   -1.7444 H   0  0  0  0  0  0  0  0  0  0  0  0
   -1.7122   -1.3839   -0.8271 H   0  0  0  0  0  0  0  0  0  0  0  0
    1.7149    1.3858    0.8246 H   0  0  0  0  0  0  0  0  0  0  0  0
    2.1847   -0.0716    1.7443 H   0  0  0  0  0  0  0  0  0  0  0  0
  1  2  1  0  0  0  0
  2  3  1  0  0  0  0
  3  4  1  0  0  0  0
  1  5  1  0  0  0  0
  5  6  1  0  0  0  0
  1  7  1  0  0  0  0
  1  8  1  0  0  0  0
  2  9  1  0  0  0  0
  2 10  1  0  0  0  0
  3 11  1  0  0  0  0
  3 12  1  0  0  0  0
  5 13  1  0  0  0  0
  5 14  1  0  0  0  0
M  END
