 xtb: 6.7.1 (edcfbbe)
          04112516013D

 20 19  0     0  0            999 V2000
   -3.3185   -0.7687   -0.5503 C   0  0  0  0  0  0  0  0  0  0  0  0
   -2.1631   -0.3910    0.3684 C   0  0  0  0  0  0  0  0  0  0  0  0
   -1.3416    0.7614   -0.2069 C   0  0  0  0  0  0  0  0  0  0  0  0
   -0.1559    1.1232    0.6829 C   0  0  0  0  0  0  0  0  0  0  0  0
    0.7669    0.0309    0.7966 O   0  0  0  0  0  0  0  0  0  0  0  0
    1.7159   -0.0947   -0.1245 C   0  0  0  0  0  0  0  0  0  0  0  0
    1.8649    0.6834   -1.0447 O   0  0  0  0  0  0  0  0  0  0  0  0
    2.5653   -1.3055    0.1210 C   0  0  0  0  0  0  0  0  0  0  0  0
   -3.9833    0.0798   -0.6933 H   0  0  0  0  0  0  0  0  0  0  0  0
   -2.9464   -1.0791   -1.5241 H   0  0  0  0  0  0  0  0  0  0  0  0
   -3.8913   -1.5879   -0.1238 H   0  0  0  0  0  0  0  0  0  0  0  0
   -2.5540   -0.0981    1.3446 H   0  0  0  0  0  0  0  0  0  0  0  0
   -1.5132   -1.2558    0.5159 H   0  0  0  0  0  0  0  0  0  0  0  0
   -0.9658    0.4929   -1.1973 H   0  0  0  0  0  0  0  0  0  0  0  0
   -1.9675    1.6479   -0.3136 H   0  0  0  0  0  0  0  0  0  0  0  0
    0.3760    1.9879    0.2741 H   0  0  0  0  0  0  0  0  0  0  0  0
   -0.4779    1.3232    1.7056 H   0  0  0  0  0  0  0  0  0  0  0  0
    3.6076   -1.0584   -0.0572 H   0  0  0  0  0  0  0  0  0  0  0  0
    2.2760   -2.0786   -0.5877 H   0  0  0  0  0  0  0  0  0  0  0  0
    2.4142   -1.6650    1.1329 H   0  0  0  0  0  0  0  0  0  0  0  0
  1  2  1  0  0  0  0
  2  3  1  0  0  0  0
  3  4  1  0  0  0  0
  4  5  1  0  0  0  0
  5  6  1  0  0  0  0
  6  7  2  0  0  0  0
  6  8  1  0  0  0  0
  1  9  1  0  0  0  0
  1 10  1  0  0  0  0
  1 11  1  0  0  0  0
  2 12  1  0  0  0  0
  2 13  1  0  0  0  0
  3 14  1  0  0  0  0
  3 15  1  0  0  0  0
  4 16  1  0  0  0  0
  4 17  1  0  0  0  0
  8 18  1  0  0  0  0
  8 19  1  0  0  0  0
  8 20  1  0  0  0  0
M  END
