 xtb: 6.7.1 (edcfbbe)
          04112514343D

 14 13  0     0  0            999 V2000
    0.7933    1.4134    0.7570 C   0  0  0  0  0  0  0  0  0  0  0  0
   -0.5840    1.1963    0.1233 C   0  0  0  0  0  0  0  0  0  0  0  0
   -0.9902   -0.2672    0.0853 C   0  0  0  0  0  0  0  0  0  0  0  0
   -2.6866   -0.4250   -0.4918 Cl  0  0  0  0  0  0  0  0  0  0  0  0
    1.9592    0.8902   -0.0661 C   0  0  0  0  0  0  0  0  0  0  0  0
    2.1968   -0.8876    0.1292 Cl  0  0  0  0  0  0  0  0  0  0  0  0
    0.8183    0.9669    1.7515 H   0  0  0  0  0  0  0  0  0  0  0  0
    0.9410    2.4887    0.8680 H   0  0  0  0  0  0  0  0  0  0  0  0
   -0.5907    1.5996   -0.8902 H   0  0  0  0  0  0  0  0  0  0  0  0
   -1.3227    1.7464    0.7082 H   0  0  0  0  0  0  0  0  0  0  0  0
   -0.3838   -0.8484   -0.6052 H   0  0  0  0  0  0  0  0  0  0  0  0
   -0.9615   -0.7175    1.0763 H   0  0  0  0  0  0  0  0  0  0  0  0
    1.8109    1.0618   -1.1304 H   0  0  0  0  0  0  0  0  0  0  0  0
    2.8964    1.3378    0.2582 H   0  0  0  0  0  0  0  0  0  0  0  0
  1  2  1  0  0  0  0
  2  3  1  0  0  0  0
  3  4  1  0  0  0  0
  1  5  1  0  0  0  0
  5  6  1  0  0  0  0
  1  7  1  0  0  0  0
  1  8  1  0  0  0  0
  2  9  1  0  0  0  0
  2 10  1  0  0  0  0
  3 11  1  0  0  0  0
  3 12  1  0  0  0  0
  5 13  1  0  0  0  0
  5 14  1  0  0  0  0
M  END
