 xtb: 6.7.1 (edcfbbe)
          04112514083D

 16 15  0     0  0            999 V2000
   -2.5578   -0.6591    0.1762 C   0  0  0  0  0  0  0  0  0  0  0  0
   -1.7836    0.4946   -0.0948 O   0  0  0  0  0  0  0  0  0  0  0  0
   -0.4752    0.2414   -0.5581 C   0  0  0  0  0  0  0  0  0  0  0  0
    0.4744   -0.2540    0.5484 C   0  0  0  0  0  0  0  0  0  0  0  0
    1.7865   -0.4928    0.0880 O   0  0  0  0  0  0  0  0  0  0  0  0
    2.5558    0.6691   -0.1609 C   0  0  0  0  0  0  0  0  0  0  0  0
   -2.5529   -1.3391   -0.6813 H   0  0  0  0  0  0  0  0  0  0  0  0
   -3.5682   -0.2994    0.3551 H   0  0  0  0  0  0  0  0  0  0  0  0
   -2.1975   -1.1891    1.0617 H   0  0  0  0  0  0  0  0  0  0  0  0
   -0.4879   -0.4914   -1.3771 H   0  0  0  0  0  0  0  0  0  0  0  0
   -0.1288    1.2027   -0.9444 H   0  0  0  0  0  0  0  0  0  0  0  0
    0.1347   -1.2206    0.9273 H   0  0  0  0  0  0  0  0  0  0  0  0
    0.4780    0.4739    1.3720 H   0  0  0  0  0  0  0  0  0  0  0  0
    2.1956    1.2128   -1.0381 H   0  0  0  0  0  0  0  0  0  0  0  0
    3.5685    0.3176   -0.3429 H   0  0  0  0  0  0  0  0  0  0  0  0
    2.5450    1.3342    0.7082 H   0  0  0  0  0  0  0  0  0  0  0  0
  1  2  1  0  0  0  0
  2  3  1  0  0  0  0
  3  4  1  0  0  0  0
  4  5  1  0  0  0  0
  5  6  1  0  0  0  0
  1  7  1  0  0  0  0
  1  8  1  0  0  0  0
  1  9  1  0  0  0  0
  3 10  1  0  0  0  0
  3 11  1  0  0  0  0
  4 12  1  0  0  0  0
  4 13  1  0  0  0  0
  6 14  1  0  0  0  0
  6 15  1  0  0  0  0
  6 16  1  0  0  0  0
M  END
