 xtb: 6.7.1 (edcfbbe)
          04112516013D

 20 19  0     0  0            999 V2000
   -3.3318   -0.7580   -0.5502 C   0  0  0  0  0  0  0  0  0  0  0  0
   -2.1751   -0.3861    0.3690 C   0  0  0  0  0  0  0  0  0  0  0  0
   -1.3463    0.7613   -0.2057 C   0  0  0  0  0  0  0  0  0  0  0  0
   -0.1554    1.1113    0.6819 C   0  0  0  0  0  0  0  0  0  0  0  0
    0.7619    0.0132    0.7847 O   0  0  0  0  0  0  0  0  0  0  0  0
    1.7181   -0.1002   -0.1312 C   0  0  0  0  0  0  0  0  0  0  0  0
    1.8645    0.6809   -1.0487 O   0  0  0  0  0  0  0  0  0  0  0  0
    2.5941   -1.2876    0.1347 C   0  0  0  0  0  0  0  0  0  0  0  0
   -3.9101   -1.5731   -0.1232 H   0  0  0  0  0  0  0  0  0  0  0  0
   -3.9913    0.0943   -0.6953 H   0  0  0  0  0  0  0  0  0  0  0  0
   -2.9604   -1.0722   -1.5230 H   0  0  0  0  0  0  0  0  0  0  0  0
   -2.5650   -0.0908    1.3449 H   0  0  0  0  0  0  0  0  0  0  0  0
   -1.5302   -1.2545    0.5172 H   0  0  0  0  0  0  0  0  0  0  0  0
   -0.9753    0.4923   -1.1977 H   0  0  0  0  0  0  0  0  0  0  0  0
   -1.9657    1.6530   -0.3084 H   0  0  0  0  0  0  0  0  0  0  0  0
    0.3791    1.9761    0.2767 H   0  0  0  0  0  0  0  0  0  0  0  0
   -0.4728    1.3061    1.7070 H   0  0  0  0  0  0  0  0  0  0  0  0
    1.9914   -2.1214    0.4800 H   0  0  0  0  0  0  0  0  0  0  0  0
    3.2991   -1.0254    0.9205 H   0  0  0  0  0  0  0  0  0  0  0  0
    3.1428   -1.5458   -0.7650 H   0  0  0  0  0  0  0  0  0  0  0  0
  1  2  1  0  0  0  0
  2  3  1  0  0  0  0
  3  4  1  0  0  0  0
  4  5  1  0  0  0  0
  5  6  1  0  0  0  0
  6  7  2  0  0  0  0
  6  8  1  0  0  0  0
  1  9  1  0  0  0  0
  1 10  1  0  0  0  0
  1 11  1  0  0  0  0
  2 12  1  0  0  0  0
  2 13  1  0  0  0  0
  3 14  1  0  0  0  0
  3 15  1  0  0  0  0
  4 16  1  0  0  0  0
  4 17  1  0  0  0  0
  8 18  1  0  0  0  0
  8 19  1  0  0  0  0
  8 20  1  0  0  0  0
M  END
