 xtb: 6.7.1 (edcfbbe)
          04112514053D

 17 16  0     0  0            999 V2000
   -2.6571   -1.5953   -0.1302 C   0  0  0  0  0  0  0  0  0  0  0  0
   -1.8015   -0.3486   -0.3377 C   0  0  0  0  0  0  0  0  0  0  0  0
   -2.3444    0.8322    0.4624 C   0  0  0  0  0  0  0  0  0  0  0  0
   -0.3612   -0.6505    0.0747 C   0  0  0  0  0  0  0  0  0  0  0  0
    0.4448    0.4675   -0.3124 O   0  0  0  0  0  0  0  0  0  0  0  0
    1.7559    0.4079   -0.0102 N   0  0  0  0  0  0  0  0  0  0  0  0
    2.1551   -0.5660    0.5541 O   0  0  0  0  0  0  0  0  0  0  0  0
    2.3826    1.3640   -0.3526 O   0  0  0  0  0  0  0  0  0  0  0  0
   -2.2861   -2.4246   -0.7261 H   0  0  0  0  0  0  0  0  0  0  0  0
   -3.6824   -1.3918   -0.4237 H   0  0  0  0  0  0  0  0  0  0  0  0
   -2.6501   -1.8896    0.9161 H   0  0  0  0  0  0  0  0  0  0  0  0
   -1.7940   -0.0843   -1.3987 H   0  0  0  0  0  0  0  0  0  0  0  0
   -2.3784    0.5896    1.5219 H   0  0  0  0  0  0  0  0  0  0  0  0
   -3.3497    1.0774    0.1329 H   0  0  0  0  0  0  0  0  0  0  0  0
   -1.7130    1.7058    0.3232 H   0  0  0  0  0  0  0  0  0  0  0  0
   -0.2818   -0.7914    1.1571 H   0  0  0  0  0  0  0  0  0  0  0  0
    0.0161   -1.5483   -0.4241 H   0  0  0  0  0  0  0  0  0  0  0  0
  1  2  1  0  0  0  0
  2  3  1  0  0  0  0
  2  4  1  0  0  0  0
  4  5  1  0  0  0  0
  5  6  1  0  0  0  0
  6  7  4  0  0  0  0
  6  8  4  0  0  0  0
  1  9  1  0  0  0  0
  1 10  1  0  0  0  0
  1 11  1  0  0  0  0
  2 12  1  0  0  0  0
  3 13  1  0  0  0  0
  3 14  1  0  0  0  0
  3 15  1  0  0  0  0
  4 16  1  0  0  0  0
  4 17  1  0  0  0  0
M  END
