 xtb: 6.7.1 (edcfbbe)
          04112517493D

 26 26  0     0  0            999 V2000
   -4.5222   -0.8373    0.6221 C   0  0  0  0  0  0  0  0  0  0  0  0
   -3.0787   -0.3710    0.7638 C   0  0  0  0  0  0  0  0  0  0  0  0
   -2.3976   -0.2114   -0.6013 C   0  0  0  0  0  0  0  0  0  0  0  0
   -0.9785    0.2524   -0.4387 C   0  0  0  0  0  0  0  0  0  0  0  0
   -0.6658    1.6016   -0.4284 C   0  0  0  0  0  0  0  0  0  0  0  0
    0.6388    2.0248   -0.2365 C   0  0  0  0  0  0  0  0  0  0  0  0
    1.6518    1.1016   -0.0484 C   0  0  0  0  0  0  0  0  0  0  0  0
    1.3455   -0.2689   -0.0537 C   0  0  0  0  0  0  0  0  0  0  0  0
    0.0391   -0.6782   -0.2468 C   0  0  0  0  0  0  0  0  0  0  0  0
    2.4251   -1.1031    0.1406 O   0  0  0  0  0  0  0  0  0  0  0  0
    2.2013   -2.4976    0.1500 C   0  0  0  0  0  0  0  0  0  0  0  0
    2.9335    1.5298    0.1376 O   0  0  0  0  0  0  0  0  0  0  0  0
   -4.5646   -1.7981    0.1142 H   0  0  0  0  0  0  0  0  0  0  0  0
   -4.9855   -0.9439    1.5997 H   0  0  0  0  0  0  0  0  0  0  0  0
   -5.0991   -0.1190    0.0443 H   0  0  0  0  0  0  0  0  0  0  0  0
   -2.5162   -1.0914    1.3616 H   0  0  0  0  0  0  0  0  0  0  0  0
   -3.0498    0.5862    1.2886 H   0  0  0  0  0  0  0  0  0  0  0  0
   -2.9566    0.5141   -1.1944 H   0  0  0  0  0  0  0  0  0  0  0  0
   -2.4197   -1.1696   -1.1239 H   0  0  0  0  0  0  0  0  0  0  0  0
   -1.4441    2.3346   -0.5744 H   0  0  0  0  0  0  0  0  0  0  0  0
    0.8929    3.0727   -0.2303 H   0  0  0  0  0  0  0  0  0  0  0  0
   -0.2077   -1.7281   -0.2540 H   0  0  0  0  0  0  0  0  0  0  0  0
    1.7992   -2.8382   -0.8076 H   0  0  0  0  0  0  0  0  0  0  0  0
    1.5241   -2.7822    0.9593 H   0  0  0  0  0  0  0  0  0  0  0  0
    3.1793   -2.9436    0.3164 H   0  0  0  0  0  0  0  0  0  0  0  0
    3.5072    0.7550    0.2505 H   0  0  0  0  0  0  0  0  0  0  0  0
  1  2  1  0  0  0  0
  2  3  1  0  0  0  0
  3  4  1  0  0  0  0
  4  5  4  0  0  0  0
  5  6  4  0  0  0  0
  6  7  4  0  0  0  0
  7  8  4  0  0  0  0
  4  9  4  0  0  0  0
  8  9  4  0  0  0  0
  8 10  1  0  0  0  0
 10 11  1  0  0  0  0
  7 12  1  0  0  0  0
  1 13  1  0  0  0  0
  1 14  1  0  0  0  0
  1 15  1  0  0  0  0
  2 16  1  0  0  0  0
  2 17  1  0  0  0  0
  3 18  1  0  0  0  0
  3 19  1  0  0  0  0
  5 20  1  0  0  0  0
  6 21  1  0  0  0  0
  9 22  1  0  0  0  0
 11 23  1  0  0  0  0
 11 24  1  0  0  0  0
 11 25  1  0  0  0  0
 12 26  1  0  0  0  0
M  END
