 xtb: 6.7.1 (edcfbbe)
          04112517153D

 20 19  0     0  0            999 V2000
   -3.3757   -0.8247    0.1368 C   0  0  0  0  0  0  0  0  0  0  0  0
   -1.9665   -0.5377   -0.3675 C   0  0  0  0  0  0  0  0  0  0  0  0
   -1.5060    0.8660    0.0202 C   0  0  0  0  0  0  0  0  0  0  0  0
   -0.1068    1.1760   -0.5146 C   0  0  0  0  0  0  0  0  0  0  0  0
    0.9452    0.3445    0.1718 C   0  0  0  0  0  0  0  0  0  0  0  0
    0.9951    0.1159    1.3618 O   0  0  0  0  0  0  0  0  0  0  0  0
    1.8491   -0.1104   -0.6913 O   0  0  0  0  0  0  0  0  0  0  0  0
    2.9307   -0.8874   -0.1701 C   0  0  0  0  0  0  0  0  0  0  0  0
   -3.4134   -0.7470    1.2209 H   0  0  0  0  0  0  0  0  0  0  0  0
   -4.0812   -0.1120   -0.2835 H   0  0  0  0  0  0  0  0  0  0  0  0
   -3.6864   -1.8267   -0.1474 H   0  0  0  0  0  0  0  0  0  0  0  0
   -1.2728   -1.2705    0.0528 H   0  0  0  0  0  0  0  0  0  0  0  0
   -1.9413   -0.6400   -1.4546 H   0  0  0  0  0  0  0  0  0  0  0  0
   -1.4920    0.9544    1.1084 H   0  0  0  0  0  0  0  0  0  0  0  0
   -2.2088    1.6001   -0.3753 H   0  0  0  0  0  0  0  0  0  0  0  0
    0.1356    2.2219   -0.3145 H   0  0  0  0  0  0  0  0  0  0  0  0
   -0.0415    1.0006   -1.5879 H   0  0  0  0  0  0  0  0  0  0  0  0
    2.5483   -1.8080    0.2722 H   0  0  0  0  0  0  0  0  0  0  0  0
    3.4623   -0.3206    0.5952 H   0  0  0  0  0  0  0  0  0  0  0  0
    3.5740   -1.1000   -1.0178 H   0  0  0  0  0  0  0  0  0  0  0  0
  1  2  1  0  0  0  0
  2  3  1  0  0  0  0
  3  4  1  0  0  0  0
  4  5  1  0  0  0  0
  5  6  2  0  0  0  0
  5  7  1  0  0  0  0
  7  8  1  0  0  0  0
  1  9  1  0  0  0  0
  1 10  1  0  0  0  0
  1 11  1  0  0  0  0
  2 12  1  0  0  0  0
  2 13  1  0  0  0  0
  3 14  1  0  0  0  0
  3 15  1  0  0  0  0
  4 16  1  0  0  0  0
  4 17  1  0  0  0  0
  8 18  1  0  0  0  0
  8 19  1  0  0  0  0
  8 20  1  0  0  0  0
M  END
