 xtb: 6.7.1 (edcfbbe)
          04112516273D

 19 18  0     0  0            999 V2000
   -3.6288    0.3058   -0.1343 C   0  0  0  0  0  0  0  0  0  0  0  0
   -2.3163   -0.3079    0.3392 C   0  0  0  0  0  0  0  0  0  0  0  0
   -1.1076    0.3802   -0.2912 C   0  0  0  0  0  0  0  0  0  0  0  0
    0.2090   -0.2292    0.1834 C   0  0  0  0  0  0  0  0  0  0  0  0
    1.4139    0.4701   -0.4555 C   0  0  0  0  0  0  0  0  0  0  0  0
    2.6620   -0.1045    0.0026 C   0  0  0  0  0  0  0  0  0  0  0  0
    3.6798   -0.5958    0.3970 C   0  0  0  0  0  0  0  0  0  0  0  0
   -3.6728    1.3604    0.1284 H   0  0  0  0  0  0  0  0  0  0  0  0
   -4.4747   -0.1986    0.3261 H   0  0  0  0  0  0  0  0  0  0  0  0
   -3.7225    0.2181   -1.2144 H   0  0  0  0  0  0  0  0  0  0  0  0
   -2.2496   -0.2281    1.4267 H   0  0  0  0  0  0  0  0  0  0  0  0
   -2.2993   -1.3702    0.0849 H   0  0  0  0  0  0  0  0  0  0  0  0
   -1.1275    1.4431   -0.0376 H   0  0  0  0  0  0  0  0  0  0  0  0
   -1.1747    0.2977   -1.3788 H   0  0  0  0  0  0  0  0  0  0  0  0
    0.2340   -1.2918   -0.0694 H   0  0  0  0  0  0  0  0  0  0  0  0
    0.2805   -0.1471    1.2705 H   0  0  0  0  0  0  0  0  0  0  0  0
    1.4010    1.5337   -0.2019 H   0  0  0  0  0  0  0  0  0  0  0  0
    1.3608    0.3778   -1.5438 H   0  0  0  0  0  0  0  0  0  0  0  0
    4.5784   -1.0172    0.7354 H   0  0  0  0  0  0  0  0  0  0  0  0
  1  2  1  0  0  0  0
  2  3  1  0  0  0  0
  3  4  1  0  0  0  0
  4  5  1  0  0  0  0
  5  6  1  0  0  0  0
  6  7  3  0  0  0  0
  1  8  1  0  0  0  0
  1  9  1  0  0  0  0
  1 10  1  0  0  0  0
  2 11  1  0  0  0  0
  2 12  1  0  0  0  0
  3 13  1  0  0  0  0
  3 14  1  0  0  0  0
  4 15  1  0  0  0  0
  4 16  1  0  0  0  0
  5 17  1  0  0  0  0
  5 18  1  0  0  0  0
  7 19  1  0  0  0  0
M  END
