 xtb: 6.7.1 (edcfbbe)
          04112516273D

 20 19  0     0  0            999 V2000
    3.0625   -1.4648   -0.4945 C   0  0  0  0  0  0  0  0  0  0  0  0
    2.3162   -0.1688   -0.5012 C   0  0  0  0  0  0  0  0  0  0  0  0
    2.5186    0.7567   -1.2574 O   0  0  0  0  0  0  0  0  0  0  0  0
    1.3706   -0.1440    0.4421 O   0  0  0  0  0  0  0  0  0  0  0  0
    0.5477    1.0182    0.5338 C   0  0  0  0  0  0  0  0  0  0  0  0
   -0.5477    1.0203   -0.5317 C   0  0  0  0  0  0  0  0  0  0  0  0
   -1.3717   -0.1415   -0.4435 O   0  0  0  0  0  0  0  0  0  0  0  0
   -2.3170   -0.1685    0.5001 C   0  0  0  0  0  0  0  0  0  0  0  0
   -2.5183    0.7547    1.2594 O   0  0  0  0  0  0  0  0  0  0  0  0
   -3.0643   -1.4639    0.4894 C   0  0  0  0  0  0  0  0  0  0  0  0
    3.0345   -1.9036    0.4971 H   0  0  0  0  0  0  0  0  0  0  0  0
    4.0824   -1.3010   -0.8277 H   0  0  0  0  0  0  0  0  0  0  0  0
    2.5750   -2.1419   -1.1931 H   0  0  0  0  0  0  0  0  0  0  0  0
    0.1111    0.9856    1.5327 H   0  0  0  0  0  0  0  0  0  0  0  0
    1.1618    1.9143    0.4072 H   0  0  0  0  0  0  0  0  0  0  0  0
   -0.1111    0.9903   -1.5306 H   0  0  0  0  0  0  0  0  0  0  0  0
   -1.1610    1.9165   -0.4024 H   0  0  0  0  0  0  0  0  0  0  0  0
   -3.0438   -1.8954   -0.5055 H   0  0  0  0  0  0  0  0  0  0  0  0
   -4.0816   -1.3019    0.8313 H   0  0  0  0  0  0  0  0  0  0  0  0
   -2.5719   -2.1466    1.1791 H   0  0  0  0  0  0  0  0  0  0  0  0
  1  2  1  0  0  0  0
  2  3  2  0  0  0  0
  2  4  1  0  0  0  0
  4  5  1  0  0  0  0
  5  6  1  0  0  0  0
  6  7  1  0  0  0  0
  7  8  1  0  0  0  0
  8  9  2  0  0  0  0
  8 10  1  0  0  0  0
  1 11  1  0  0  0  0
  1 12  1  0  0  0  0
  1 13  1  0  0  0  0
  5 14  1  0  0  0  0
  5 15  1  0  0  0  0
  6 16  1  0  0  0  0
  6 17  1  0  0  0  0
 10 18  1  0  0  0  0
 10 19  1  0  0  0  0
 10 20  1  0  0  0  0
M  END
