 xtb: 6.7.1 (edcfbbe)
          04112514243D

 14 13  0     0  0            999 V2000
    0.6591    1.5948   -0.0141 C   0  0  0  0  0  0  0  0  0  0  0  0
   -0.6260    1.2634    0.7476 C   0  0  0  0  0  0  0  0  0  0  0  0
   -1.7945    0.8430   -0.1305 C   0  0  0  0  0  0  0  0  0  0  0  0
   -1.7254   -0.9017   -0.5961 Cl  0  0  0  0  0  0  0  0  0  0  0  0
    1.3490    0.3952   -0.6387 C   0  0  0  0  0  0  0  0  0  0  0  0
    1.8993   -0.7678    0.6227 Cl  0  0  0  0  0  0  0  0  0  0  0  0
    1.3531    2.0789    0.6740 H   0  0  0  0  0  0  0  0  0  0  0  0
    0.4335    2.2955   -0.8198 H   0  0  0  0  0  0  0  0  0  0  0  0
   -0.9392    2.1606    1.2839 H   0  0  0  0  0  0  0  0  0  0  0  0
   -0.4225    0.4876    1.4868 H   0  0  0  0  0  0  0  0  0  0  0  0
   -2.7377    0.9528    0.4006 H   0  0  0  0  0  0  0  0  0  0  0  0
   -1.8214    1.4032   -1.0629 H   0  0  0  0  0  0  0  0  0  0  0  0
    0.6853   -0.1644   -1.2936 H   0  0  0  0  0  0  0  0  0  0  0  0
    2.2456    0.6945   -1.1778 H   0  0  0  0  0  0  0  0  0  0  0  0
  1  2  1  0  0  0  0
  2  3  1  0  0  0  0
  3  4  1  0  0  0  0
  1  5  1  0  0  0  0
  5  6  1  0  0  0  0
  1  7  1  0  0  0  0
  1  8  1  0  0  0  0
  2  9  1  0  0  0  0
  2 10  1  0  0  0  0
  3 11  1  0  0  0  0
  3 12  1  0  0  0  0
  5 13  1  0  0  0  0
  5 14  1  0  0  0  0
M  END
