 xtb: 6.7.1 (edcfbbe)
          04112516113D

 17 16  0     0  0            999 V2000
   -2.8546    0.7149    0.7856 C   0  0  0  0  0  0  0  0  0  0  0  0
   -2.3420   -0.1581   -0.3544 C   0  0  0  0  0  0  0  0  0  0  0  0
   -0.9049   -0.6337   -0.1457 C   0  0  0  0  0  0  0  0  0  0  0  0
    0.1093    0.5178   -0.1599 C   0  0  0  0  0  0  0  0  0  0  0  0
    1.5082   -0.0336   -0.1539 C   0  0  0  0  0  0  0  0  0  0  0  0
    1.9790   -0.7360   -1.0242 O   0  0  0  0  0  0  0  0  0  0  0  0
    2.1912    0.3133    0.9251 O   0  0  0  0  0  0  0  0  0  0  0  0
   -2.3117    1.6546    0.8333 H   0  0  0  0  0  0  0  0  0  0  0  0
   -3.9080    0.9400    0.6395 H   0  0  0  0  0  0  0  0  0  0  0  0
   -2.7430    0.2009    1.7374 H   0  0  0  0  0  0  0  0  0  0  0  0
   -2.4078    0.3928   -1.2945 H   0  0  0  0  0  0  0  0  0  0  0  0
   -2.9810   -1.0392   -0.4416 H   0  0  0  0  0  0  0  0  0  0  0  0
   -0.8323   -1.1640    0.8062 H   0  0  0  0  0  0  0  0  0  0  0  0
   -0.6364   -1.3330   -0.9409 H   0  0  0  0  0  0  0  0  0  0  0  0
   -0.0136    1.1639    0.7069 H   0  0  0  0  0  0  0  0  0  0  0  0
   -0.0233    1.0958   -1.0760 H   0  0  0  0  0  0  0  0  0  0  0  0
    3.0964   -0.0547    0.9393 H   0  0  0  0  0  0  0  0  0  0  0  0
  1  2  1  0  0  0  0
  2  3  1  0  0  0  0
  3  4  1  0  0  0  0
  4  5  1  0  0  0  0
  5  6  2  0  0  0  0
  5  7  1  0  0  0  0
  1  8  1  0  0  0  0
  1  9  1  0  0  0  0
  1 10  1  0  0  0  0
  2 11  1  0  0  0  0
  2 12  1  0  0  0  0
  3 13  1  0  0  0  0
  3 14  1  0  0  0  0
  4 15  1  0  0  0  0
  4 16  1  0  0  0  0
  7 17  1  0  0  0  0
M  END
