 xtb: 6.7.1 (edcfbbe)
          04112516013D

 20 19  0     0  0            999 V2000
   -2.0237   -1.3157   -0.2773 C   0  0  0  0  0  0  0  0  0  0  0  0
   -2.1304   -0.0781    0.6081 C   0  0  0  0  0  0  0  0  0  0  0  0
   -1.6703    1.2023   -0.0983 C   0  0  0  0  0  0  0  0  0  0  0  0
   -0.1733    1.4709    0.0306 C   0  0  0  0  0  0  0  0  0  0  0  0
    0.6016    0.4767   -0.6542 O   0  0  0  0  0  0  0  0  0  0  0  0
    1.4641   -0.2624    0.0311 C   0  0  0  0  0  0  0  0  0  0  0  0
    1.6607   -0.1434    1.2239 O   0  0  0  0  0  0  0  0  0  0  0  0
    2.1589   -1.2560   -0.8523 C   0  0  0  0  0  0  0  0  0  0  0  0
   -2.3333   -2.2008    0.2734 H   0  0  0  0  0  0  0  0  0  0  0  0
   -2.6646   -1.2117   -1.1497 H   0  0  0  0  0  0  0  0  0  0  0  0
   -1.0033   -1.4644   -0.6192 H   0  0  0  0  0  0  0  0  0  0  0  0
   -3.1715    0.0408    0.9131 H   0  0  0  0  0  0  0  0  0  0  0  0
   -1.5368   -0.2238    1.5139 H   0  0  0  0  0  0  0  0  0  0  0  0
   -1.9324    1.1511   -1.1556 H   0  0  0  0  0  0  0  0  0  0  0  0
   -2.1758    2.0637    0.3389 H   0  0  0  0  0  0  0  0  0  0  0  0
    0.0805    2.4264   -0.4360 H   0  0  0  0  0  0  0  0  0  0  0  0
    0.1326    1.4835    1.0816 H   0  0  0  0  0  0  0  0  0  0  0  0
    3.2335   -1.1463   -0.7344 H   0  0  0  0  0  0  0  0  0  0  0  0
    1.8681   -1.1019   -1.8859 H   0  0  0  0  0  0  0  0  0  0  0  0
    1.8901   -2.2596   -0.5302 H   0  0  0  0  0  0  0  0  0  0  0  0
  1  2  1  0  0  0  0
  2  3  1  0  0  0  0
  3  4  1  0  0  0  0
  4  5  1  0  0  0  0
  5  6  1  0  0  0  0
  6  7  2  0  0  0  0
  6  8  1  0  0  0  0
  1  9  1  0  0  0  0
  1 10  1  0  0  0  0
  1 11  1  0  0  0  0
  2 12  1  0  0  0  0
  2 13  1  0  0  0  0
  3 14  1  0  0  0  0
  3 15  1  0  0  0  0
  4 16  1  0  0  0  0
  4 17  1  0  0  0  0
  8 18  1  0  0  0  0
  8 19  1  0  0  0  0
  8 20  1  0  0  0  0
M  END
