 xtb: 6.7.1 (edcfbbe)
          04112517153D

 20 19  0     0  0            999 V2000
   -3.6717   -0.4470    0.7639 C   0  0  0  0  0  0  0  0  0  0  0  0
   -2.6489   -0.2806   -0.3537 C   0  0  0  0  0  0  0  0  0  0  0  0
   -1.2512   -0.0204    0.2032 C   0  0  0  0  0  0  0  0  0  0  0  0
   -0.2191    0.1458   -0.9221 C   0  0  0  0  0  0  0  0  0  0  0  0
    1.1298    0.4172   -0.3153 C   0  0  0  0  0  0  0  0  0  0  0  0
    1.5859    1.5186   -0.0882 O   0  0  0  0  0  0  0  0  0  0  0  0
    1.7664   -0.7082   -0.0115 O   0  0  0  0  0  0  0  0  0  0  0  0
    3.0418   -0.5968    0.6253 C   0  0  0  0  0  0  0  0  0  0  0  0
   -3.4051   -1.2853    1.4032 H   0  0  0  0  0  0  0  0  0  0  0  0
   -3.7158    0.4503    1.3767 H   0  0  0  0  0  0  0  0  0  0  0  0
   -4.6599   -0.6300    0.3503 H   0  0  0  0  0  0  0  0  0  0  0  0
   -2.6296   -1.1834   -0.9667 H   0  0  0  0  0  0  0  0  0  0  0  0
   -2.9426    0.5527   -0.9945 H   0  0  0  0  0  0  0  0  0  0  0  0
   -0.9513   -0.8539    0.8417 H   0  0  0  0  0  0  0  0  0  0  0  0
   -1.2624    0.8857    0.8132 H   0  0  0  0  0  0  0  0  0  0  0  0
   -0.4949    0.9886   -1.5550 H   0  0  0  0  0  0  0  0  0  0  0  0
   -0.1678   -0.7688   -1.5113 H   0  0  0  0  0  0  0  0  0  0  0  0
    3.7293   -0.0411   -0.0133 H   0  0  0  0  0  0  0  0  0  0  0  0
    3.3843   -1.6157    0.7752 H   0  0  0  0  0  0  0  0  0  0  0  0
    2.9394   -0.0725    1.5761 H   0  0  0  0  0  0  0  0  0  0  0  0
  1  2  1  0  0  0  0
  2  3  1  0  0  0  0
  3  4  1  0  0  0  0
  4  5  1  0  0  0  0
  5  6  2  0  0  0  0
  5  7  1  0  0  0  0
  7  8  1  0  0  0  0
  1  9  1  0  0  0  0
  1 10  1  0  0  0  0
  1 11  1  0  0  0  0
  2 12  1  0  0  0  0
  2 13  1  0  0  0  0
  3 14  1  0  0  0  0
  3 15  1  0  0  0  0
  4 16  1  0  0  0  0
  4 17  1  0  0  0  0
  8 18  1  0  0  0  0
  8 19  1  0  0  0  0
  8 20  1  0  0  0  0
M  END
