 xtb: 6.7.1 (edcfbbe)
          04112516113D

 17 16  0     0  0            999 V2000
   -3.3567    0.4213   -0.2220 C   0  0  0  0  0  0  0  0  0  0  0  0
   -2.1642    0.0621    0.6565 C   0  0  0  0  0  0  0  0  0  0  0  0
   -0.8588    0.0963   -0.1344 C   0  0  0  0  0  0  0  0  0  0  0  0
    0.3441   -0.2651    0.7500 C   0  0  0  0  0  0  0  0  0  0  0  0
    1.5947   -0.2276   -0.0819 C   0  0  0  0  0  0  0  0  0  0  0  0
    2.1127   -1.1943   -0.6012 O   0  0  0  0  0  0  0  0  0  0  0  0
    2.0705    0.9984   -0.2286 O   0  0  0  0  0  0  0  0  0  0  0  0
   -3.2400    1.4212   -0.6333 H   0  0  0  0  0  0  0  0  0  0  0  0
   -3.4465   -0.2803   -1.0481 H   0  0  0  0  0  0  0  0  0  0  0  0
   -4.2769    0.3919    0.3556 H   0  0  0  0  0  0  0  0  0  0  0  0
   -2.3075   -0.9364    1.0737 H   0  0  0  0  0  0  0  0  0  0  0  0
   -2.1001    0.7659    1.4882 H   0  0  0  0  0  0  0  0  0  0  0  0
   -0.9158   -0.6105   -0.9655 H   0  0  0  0  0  0  0  0  0  0  0  0
   -0.7090    1.0950   -0.5492 H   0  0  0  0  0  0  0  0  0  0  0  0
    0.2192   -1.2683    1.1560 H   0  0  0  0  0  0  0  0  0  0  0  0
    0.4334    0.4605    1.5578 H   0  0  0  0  0  0  0  0  0  0  0  0
    2.8620    1.0334   -0.8000 H   0  0  0  0  0  0  0  0  0  0  0  0
  1  2  1  0  0  0  0
  2  3  1  0  0  0  0
  3  4  1  0  0  0  0
  4  5  1  0  0  0  0
  5  6  2  0  0  0  0
  5  7  1  0  0  0  0
  1  8  1  0  0  0  0
  1  9  1  0  0  0  0
  1 10  1  0  0  0  0
  2 11  1  0  0  0  0
  2 12  1  0  0  0  0
  3 13  1  0  0  0  0
  3 14  1  0  0  0  0
  4 15  1  0  0  0  0
  4 16  1  0  0  0  0
  7 17  1  0  0  0  0
M  END
