 xtb: 6.7.1 (edcfbbe)
          04112516153D

 26 25  0     0  0            999 V2000
    0.9584   -0.5703   -1.5882 C   0  0  0  0  0  0  0  0  0  0  0  0
    1.7531   -0.6081   -0.2956 C   0  0  0  0  0  0  0  0  0  0  0  0
    2.9526   -1.5469   -0.4173 C   0  0  0  0  0  0  0  0  0  0  0  0
    1.0150   -0.9032    0.9649 C   0  0  0  0  0  0  0  0  0  0  0  0
   -0.2005   -1.0570    1.2683 N   0  0  0  0  0  0  0  0  0  0  0  0
   -1.1683   -1.0937    0.2206 O   0  0  0  0  0  0  0  0  0  0  0  0
   -2.0856   -0.0854    0.2459 C   0  0  0  0  0  0  0  0  0  0  0  0
   -1.9171    0.9574    0.8524 O   0  0  0  0  0  0  0  0  0  0  0  0
   -3.1252   -0.3967   -0.5267 N   0  0  0  0  0  0  0  0  0  0  0  0
   -4.2286    0.5075   -0.7637 C   0  0  0  0  0  0  0  0  0  0  0  0
    2.4802    1.0764    0.0831 S   0  0  0  0  0  0  0  0  0  0  0  0
    1.0525    2.1926    0.0501 C   0  0  0  0  0  0  0  0  0  0  0  0
    0.5312   -1.5516   -1.7845 H   0  0  0  0  0  0  0  0  0  0  0  0
    0.1493    0.1549   -1.5439 H   0  0  0  0  0  0  0  0  0  0  0  0
    1.6208   -0.3008   -2.4076 H   0  0  0  0  0  0  0  0  0  0  0  0
    2.6066   -2.5655   -0.5760 H   0  0  0  0  0  0  0  0  0  0  0  0
    3.5595   -1.5123    0.4835 H   0  0  0  0  0  0  0  0  0  0  0  0
    3.5684   -1.2430   -1.2592 H   0  0  0  0  0  0  0  0  0  0  0  0
    1.6465   -0.9561    1.8450 H   0  0  0  0  0  0  0  0  0  0  0  0
   -3.1414   -1.3084   -0.9584 H   0  0  0  0  0  0  0  0  0  0  0  0
   -5.1586    0.0627   -0.4130 H   0  0  0  0  0  0  0  0  0  0  0  0
   -4.3081    0.7320   -1.8265 H   0  0  0  0  0  0  0  0  0  0  0  0
   -4.0349    1.4244   -0.2109 H   0  0  0  0  0  0  0  0  0  0  0  0
    0.2134    1.7591    0.5885 H   0  0  0  0  0  0  0  0  0  0  0  0
    0.7829    2.4172   -0.9777 H   0  0  0  0  0  0  0  0  0  0  0  0
    1.3764    3.0974    0.5536 H   0  0  0  0  0  0  0  0  0  0  0  0
  1  2  1  0  0  0  0
  2  3  1  0  0  0  0
  2  4  1  0  0  0  0
  4  5  2  0  0  0  0
  5  6  1  0  0  0  0
  6  7  1  0  0  0  0
  7  8  2  0  0  0  0
  7  9  4  0  0  0  0
  9 10  1  0  0  0  0
  2 11  1  0  0  0  0
 11 12  1  0  0  0  0
  1 13  1  0  0  0  0
  1 14  1  0  0  0  0
  1 15  1  0  0  0  0
  3 16  1  0  0  0  0
  3 17  1  0  0  0  0
  3 18  1  0  0  0  0
  4 19  1  0  0  0  0
  9 20  1  0  0  0  0
 10 21  1  0  0  0  0
 10 22  1  0  0  0  0
 10 23  1  0  0  0  0
 12 24  1  0  0  0  0
 12 25  1  0  0  0  0
 12 26  1  0  0  0  0
M  END
