 xtb: 6.7.1 (edcfbbe)
          04112516153D

 26 25  0     0  0            999 V2000
    1.7221    0.0167   -1.8982 C   0  0  0  0  0  0  0  0  0  0  0  0
    1.2609   -0.0707   -0.4518 C   0  0  0  0  0  0  0  0  0  0  0  0
    0.6101   -1.4171   -0.1714 C   0  0  0  0  0  0  0  0  0  0  0  0
    0.5177    1.1578   -0.0489 C   0  0  0  0  0  0  0  0  0  0  0  0
   -0.5417    1.4107    0.5904 N   0  0  0  0  0  0  0  0  0  0  0  0
   -1.4012    0.3531    0.9944 O   0  0  0  0  0  0  0  0  0  0  0  0
   -2.2431   -0.1383    0.0412 C   0  0  0  0  0  0  0  0  0  0  0  0
   -2.1315    0.1015   -1.1476 O   0  0  0  0  0  0  0  0  0  0  0  0
   -3.1611   -0.9156    0.6147 N   0  0  0  0  0  0  0  0  0  0  0  0
   -4.1811   -1.6165   -0.1332 C   0  0  0  0  0  0  0  0  0  0  0  0
    2.6973    0.0224    0.7530 S   0  0  0  0  0  0  0  0  0  0  0  0
    3.8330    1.2478    0.0364 C   0  0  0  0  0  0  0  0  0  0  0  0
    2.4362   -0.7754   -2.1103 H   0  0  0  0  0  0  0  0  0  0  0  0
    0.8535   -0.1115   -2.5427 H   0  0  0  0  0  0  0  0  0  0  0  0
    2.1715    0.9802   -2.1219 H   0  0  0  0  0  0  0  0  0  0  0  0
    1.3197   -2.2097   -0.3974 H   0  0  0  0  0  0  0  0  0  0  0  0
   -0.2686   -1.5463   -0.8001 H   0  0  0  0  0  0  0  0  0  0  0  0
    0.3226   -1.5006    0.8749 H   0  0  0  0  0  0  0  0  0  0  0  0
    1.0338    2.0813   -0.2926 H   0  0  0  0  0  0  0  0  0  0  0  0
   -3.1374   -1.0132    1.6184 H   0  0  0  0  0  0  0  0  0  0  0  0
   -5.1698   -1.2991    0.1944 H   0  0  0  0  0  0  0  0  0  0  0  0
   -4.0766   -2.6917    0.0069 H   0  0  0  0  0  0  0  0  0  0  0  0
   -4.0523   -1.3718   -1.1855 H   0  0  0  0  0  0  0  0  0  0  0  0
    4.6353    1.3341    0.7618 H   0  0  0  0  0  0  0  0  0  0  0  0
    3.3361    2.2054   -0.0752 H   0  0  0  0  0  0  0  0  0  0  0  0
    4.2236    0.8847   -0.9075 H   0  0  0  0  0  0  0  0  0  0  0  0
  1  2  1  0  0  0  0
  2  3  1  0  0  0  0
  2  4  1  0  0  0  0
  4  5  2  0  0  0  0
  5  6  1  0  0  0  0
  6  7  1  0  0  0  0
  7  8  2  0  0  0  0
  7  9  4  0  0  0  0
  9 10  1  0  0  0  0
  2 11  1  0  0  0  0
 11 12  1  0  0  0  0
  1 13  1  0  0  0  0
  1 14  1  0  0  0  0
  1 15  1  0  0  0  0
  3 16  1  0  0  0  0
  3 17  1  0  0  0  0
  3 18  1  0  0  0  0
  4 19  1  0  0  0  0
  9 20  1  0  0  0  0
 10 21  1  0  0  0  0
 10 22  1  0  0  0  0
 10 23  1  0  0  0  0
 12 24  1  0  0  0  0
 12 25  1  0  0  0  0
 12 26  1  0  0  0  0
M  END
