 xtb: 6.7.1 (edcfbbe)
          04112516093D

 19 18  0     0  0            999 V2000
    3.0859    0.3830   -0.6269 C   0  0  0  0  0  0  0  0  0  0  0  0
    1.7599    0.7196    0.0465 C   0  0  0  0  0  0  0  0  0  0  0  0
    0.9624   -0.5452    0.3590 C   0  0  0  0  0  0  0  0  0  0  0  0
   -0.3854   -0.2738    1.0564 C   0  0  0  0  0  0  0  0  0  0  0  0
   -1.5345   -0.2038    0.0807 C   0  0  0  0  0  0  0  0  0  0  0  0
   -2.3984   -1.0615    0.0620 O   0  0  0  0  0  0  0  0  0  0  0  0
   -1.5491    0.9548   -0.8702 C   0  0  0  0  0  0  0  0  0  0  0  0
    2.9157   -0.1380   -1.5663 H   0  0  0  0  0  0  0  0  0  0  0  0
    3.6489    1.2894   -0.8342 H   0  0  0  0  0  0  0  0  0  0  0  0
    3.6888   -0.2573    0.0128 H   0  0  0  0  0  0  0  0  0  0  0  0
    1.1883    1.3799   -0.6050 H   0  0  0  0  0  0  0  0  0  0  0  0
    1.9550    1.2560    0.9773 H   0  0  0  0  0  0  0  0  0  0  0  0
    1.5655   -1.1741    1.0157 H   0  0  0  0  0  0  0  0  0  0  0  0
    0.7898   -1.1126   -0.5584 H   0  0  0  0  0  0  0  0  0  0  0  0
   -0.6048   -1.0817    1.7563 H   0  0  0  0  0  0  0  0  0  0  0  0
   -0.3250    0.6628    1.6112 H   0  0  0  0  0  0  0  0  0  0  0  0
   -2.5077    1.0044   -1.3797 H   0  0  0  0  0  0  0  0  0  0  0  0
   -1.3517    1.8835   -0.3440 H   0  0  0  0  0  0  0  0  0  0  0  0
   -0.7672    0.8073   -1.6122 H   0  0  0  0  0  0  0  0  0  0  0  0
  1  2  1  0  0  0  0
  2  3  1  0  0  0  0
  3  4  1  0  0  0  0
  4  5  1  0  0  0  0
  5  6  2  0  0  0  0
  5  7  1  0  0  0  0
  1  8  1  0  0  0  0
  1  9  1  0  0  0  0
  1 10  1  0  0  0  0
  2 11  1  0  0  0  0
  2 12  1  0  0  0  0
  3 13  1  0  0  0  0
  3 14  1  0  0  0  0
  4 15  1  0  0  0  0
  4 16  1  0  0  0  0
  7 17  1  0  0  0  0
  7 18  1  0  0  0  0
  7 19  1  0  0  0  0
M  END
