 xtb: 6.7.1 (edcfbbe)
          04112518233D

 26 25  0     0  0            999 V2000
    1.1482   -0.4878   -1.6585 C   0  0  0  0  0  0  0  0  0  0  0  0
    1.8178   -0.6728   -0.3093 C   0  0  0  0  0  0  0  0  0  0  0  0
    3.0275   -1.5979   -0.4217 C   0  0  0  0  0  0  0  0  0  0  0  0
    0.9656   -1.0853    0.8406 C   0  0  0  0  0  0  0  0  0  0  0  0
   -0.2796   -1.1592    1.0383 N   0  0  0  0  0  0  0  0  0  0  0  0
   -1.1554   -0.9562   -0.0681 O   0  0  0  0  0  0  0  0  0  0  0  0
   -2.1145   -0.0057    0.1335 C   0  0  0  0  0  0  0  0  0  0  0  0
   -2.0265    0.8635    0.9812 O   0  0  0  0  0  0  0  0  0  0  0  0
   -3.0878   -0.1453   -0.7655 N   0  0  0  0  0  0  0  0  0  0  0  0
   -4.2063    0.7662   -0.8623 C   0  0  0  0  0  0  0  0  0  0  0  0
    2.4964    0.9543    0.3293 S   0  0  0  0  0  0  0  0  0  0  0  0
    1.0638    2.0636    0.3356 C   0  0  0  0  0  0  0  0  0  0  0  0
    1.8879   -0.1541   -2.3826 H   0  0  0  0  0  0  0  0  0  0  0  0
    0.7283   -1.4355   -1.9893 H   0  0  0  0  0  0  0  0  0  0  0  0
    0.3469    0.2451   -1.6169 H   0  0  0  0  0  0  0  0  0  0  0  0
    3.5473   -1.6679    0.5301 H   0  0  0  0  0  0  0  0  0  0  0  0
    3.7189   -1.2064   -1.1628 H   0  0  0  0  0  0  0  0  0  0  0  0
    2.7027   -2.5902   -0.7250 H   0  0  0  0  0  0  0  0  0  0  0  0
    1.5183   -1.3175    1.7439 H   0  0  0  0  0  0  0  0  0  0  0  0
   -3.0402   -0.9259   -1.4029 H   0  0  0  0  0  0  0  0  0  0  0  0
   -4.2214    1.2396   -1.8432 H   0  0  0  0  0  0  0  0  0  0  0  0
   -4.0863    1.5260   -0.0927 H   0  0  0  0  0  0  0  0  0  0  0  0
   -5.1403    0.2303   -0.7001 H   0  0  0  0  0  0  0  0  0  0  0  0
    0.8227    2.3652   -0.6794 H   0  0  0  0  0  0  0  0  0  0  0  0
    1.3693    2.9288    0.9147 H   0  0  0  0  0  0  0  0  0  0  0  0
    0.2119    1.5901    0.8179 H   0  0  0  0  0  0  0  0  0  0  0  0
  1  2  1  0  0  0  0
  2  3  1  0  0  0  0
  2  4  1  0  0  0  0
  4  5  2  0  0  0  0
  5  6  1  0  0  0  0
  6  7  1  0  0  0  0
  7  8  2  0  0  0  0
  7  9  4  0  0  0  0
  9 10  1  0  0  0  0
  2 11  1  0  0  0  0
 11 12  1  0  0  0  0
  1 13  1  0  0  0  0
  1 14  1  0  0  0  0
  1 15  1  0  0  0  0
  3 16  1  0  0  0  0
  3 17  1  0  0  0  0
  3 18  1  0  0  0  0
  4 19  1  0  0  0  0
  9 20  1  0  0  0  0
 10 21  1  0  0  0  0
 10 22  1  0  0  0  0
 10 23  1  0  0  0  0
 12 24  1  0  0  0  0
 12 25  1  0  0  0  0
 12 26  1  0  0  0  0
M  END
