 xtb: 6.7.1 (edcfbbe)
          04112517493D

 26 26  0     0  0            999 V2000
   -2.9408   -1.3199   -1.1930 C   0  0  0  0  0  0  0  0  0  0  0  0
   -3.3885   -0.1954   -0.2681 C   0  0  0  0  0  0  0  0  0  0  0  0
   -2.4796   -0.0589    0.9615 C   0  0  0  0  0  0  0  0  0  0  0  0
   -1.0856    0.3461    0.5740 C   0  0  0  0  0  0  0  0  0  0  0  0
   -0.7994    1.6603    0.2468 C   0  0  0  0  0  0  0  0  0  0  0  0
    0.4775    2.0259   -0.1476 C   0  0  0  0  0  0  0  0  0  0  0  0
    1.4895    1.0861   -0.2240 C   0  0  0  0  0  0  0  0  0  0  0  0
    1.2127   -0.2526    0.1069 C   0  0  0  0  0  0  0  0  0  0  0  0
   -0.0686   -0.6011    0.5005 C   0  0  0  0  0  0  0  0  0  0  0  0
    2.2694   -1.1181    0.0061 O   0  0  0  0  0  0  0  0  0  0  0  0
    2.0532   -2.4777    0.3227 C   0  0  0  0  0  0  0  0  0  0  0  0
    2.7619    1.3989   -0.6073 O   0  0  0  0  0  0  0  0  0  0  0  0
   -3.6052   -1.3938   -2.0504 H   0  0  0  0  0  0  0  0  0  0  0  0
   -1.9314   -1.1349   -1.5539 H   0  0  0  0  0  0  0  0  0  0  0  0
   -2.9508   -2.2724   -0.6676 H   0  0  0  0  0  0  0  0  0  0  0  0
   -4.4091   -0.3881    0.0686 H   0  0  0  0  0  0  0  0  0  0  0  0
   -3.3875    0.7474   -0.8184 H   0  0  0  0  0  0  0  0  0  0  0  0
   -2.4554   -1.0106    1.4946 H   0  0  0  0  0  0  0  0  0  0  0  0
   -2.9029    0.6957    1.6275 H   0  0  0  0  0  0  0  0  0  0  0  0
   -1.5736    2.4102    0.3006 H   0  0  0  0  0  0  0  0  0  0  0  0
    0.6897    3.0549   -0.3985 H   0  0  0  0  0  0  0  0  0  0  0  0
   -0.2935   -1.6238    0.7576 H   0  0  0  0  0  0  0  0  0  0  0  0
    3.0150   -2.9618    0.1690 H   0  0  0  0  0  0  0  0  0  0  0  0
    1.3066   -2.9246   -0.3398 H   0  0  0  0  0  0  0  0  0  0  0  0
    1.7438   -2.5970    1.3647 H   0  0  0  0  0  0  0  0  0  0  0  0
    2.8228    2.3459   -0.8049 H   0  0  0  0  0  0  0  0  0  0  0  0
  1  2  1  0  0  0  0
  2  3  1  0  0  0  0
  3  4  1  0  0  0  0
  4  5  4  0  0  0  0
  5  6  4  0  0  0  0
  6  7  4  0  0  0  0
  7  8  4  0  0  0  0
  4  9  4  0  0  0  0
  8  9  4  0  0  0  0
  8 10  1  0  0  0  0
 10 11  1  0  0  0  0
  7 12  1  0  0  0  0
  1 13  1  0  0  0  0
  1 14  1  0  0  0  0
  1 15  1  0  0  0  0
  2 16  1  0  0  0  0
  2 17  1  0  0  0  0
  3 18  1  0  0  0  0
  3 19  1  0  0  0  0
  5 20  1  0  0  0  0
  6 21  1  0  0  0  0
  9 22  1  0  0  0  0
 11 23  1  0  0  0  0
 11 24  1  0  0  0  0
 11 25  1  0  0  0  0
 12 26  1  0  0  0  0
M  END
