 xtb: 6.7.1 (edcfbbe)
          04112516053D

 26 26  0     0  0            999 V2000
   -4.4531   -1.1881    0.4059 C   0  0  0  0  0  0  0  0  0  0  0  0
   -2.9324   -1.0951    0.3430 C   0  0  0  0  0  0  0  0  0  0  0  0
   -2.4883    0.2693   -0.1793 C   0  0  0  0  0  0  0  0  0  0  0  0
   -1.0032    0.5278   -0.1684 C   0  0  0  0  0  0  0  0  0  0  0  0
   -0.5496    1.8254   -0.3642 C   0  0  0  0  0  0  0  0  0  0  0  0
    0.8025    2.1161   -0.3799 C   0  0  0  0  0  0  0  0  0  0  0  0
    1.7344    1.1093   -0.1957 C   0  0  0  0  0  0  0  0  0  0  0  0
    1.2897   -0.2053    0.0045 C   0  0  0  0  0  0  0  0  0  0  0  0
   -0.0666   -0.4836    0.0141 C   0  0  0  0  0  0  0  0  0  0  0  0
    2.2933   -1.1345    0.1799 O   0  0  0  0  0  0  0  0  0  0  0  0
    1.9319   -2.4823    0.3981 C   0  0  0  0  0  0  0  0  0  0  0  0
    3.0665    1.4053   -0.2100 O   0  0  0  0  0  0  0  0  0  0  0  0
   -4.8854   -1.0336   -0.5802 H   0  0  0  0  0  0  0  0  0  0  0  0
   -4.7605   -2.1668    0.7661 H   0  0  0  0  0  0  0  0  0  0  0  0
   -4.8547   -0.4332    1.0779 H   0  0  0  0  0  0  0  0  0  0  0  0
   -2.5581   -1.8829   -0.3132 H   0  0  0  0  0  0  0  0  0  0  0  0
   -2.5196   -1.2541    1.3414 H   0  0  0  0  0  0  0  0  0  0  0  0
   -2.9716    1.0478    0.4172 H   0  0  0  0  0  0  0  0  0  0  0  0
   -2.8487    0.3882   -1.2061 H   0  0  0  0  0  0  0  0  0  0  0  0
   -1.2622    2.6233   -0.5079 H   0  0  0  0  0  0  0  0  0  0  0  0
    1.1579    3.1226   -0.5320 H   0  0  0  0  0  0  0  0  0  0  0  0
   -0.3982   -1.4963    0.1660 H   0  0  0  0  0  0  0  0  0  0  0  0
    1.3375   -2.5883    1.3094 H   0  0  0  0  0  0  0  0  0  0  0  0
    2.8731   -3.0162    0.5101 H   0  0  0  0  0  0  0  0  0  0  0  0
    1.3795   -2.8855   -0.4546 H   0  0  0  0  0  0  0  0  0  0  0  0
    3.5679    0.5871   -0.0643 H   0  0  0  0  0  0  0  0  0  0  0  0
  1  2  1  0  0  0  0
  2  3  1  0  0  0  0
  3  4  1  0  0  0  0
  4  5  4  0  0  0  0
  5  6  4  0  0  0  0
  6  7  4  0  0  0  0
  7  8  4  0  0  0  0
  4  9  4  0  0  0  0
  8  9  4  0  0  0  0
  8 10  1  0  0  0  0
 10 11  1  0  0  0  0
  7 12  1  0  0  0  0
  1 13  1  0  0  0  0
  1 14  1  0  0  0  0
  1 15  1  0  0  0  0
  2 16  1  0  0  0  0
  2 17  1  0  0  0  0
  3 18  1  0  0  0  0
  3 19  1  0  0  0  0
  5 20  1  0  0  0  0
  6 21  1  0  0  0  0
  9 22  1  0  0  0  0
 11 23  1  0  0  0  0
 11 24  1  0  0  0  0
 11 25  1  0  0  0  0
 12 26  1  0  0  0  0
M  END
