 xtb: 6.7.1 (edcfbbe)
          04112516113D

 17 16  0     0  0            999 V2000
   -2.5409   -0.8480    0.5829 C   0  0  0  0  0  0  0  0  0  0  0  0
   -2.2197   -0.0026   -0.6442 C   0  0  0  0  0  0  0  0  0  0  0  0
   -1.8702    1.4468   -0.3022 C   0  0  0  0  0  0  0  0  0  0  0  0
   -0.6074    1.6416    0.5405 C   0  0  0  0  0  0  0  0  0  0  0  0
    0.6866    1.2846   -0.1725 C   0  0  0  0  0  0  0  0  0  0  0  0
    1.1854   -0.6218   -0.0065 Br  0  0  0  0  0  0  0  0  0  0  0  0
   -3.3087   -0.3689    1.1864 H   0  0  0  0  0  0  0  0  0  0  0  0
   -1.6582   -0.9998    1.1989 H   0  0  0  0  0  0  0  0  0  0  0  0
   -2.9026   -1.8266    0.2779 H   0  0  0  0  0  0  0  0  0  0  0  0
   -1.4056   -0.4676   -1.2016 H   0  0  0  0  0  0  0  0  0  0  0  0
   -3.0925    0.0107   -1.3012 H   0  0  0  0  0  0  0  0  0  0  0  0
   -1.7578    2.0096   -1.2324 H   0  0  0  0  0  0  0  0  0  0  0  0
   -2.7076    1.8829    0.2467 H   0  0  0  0  0  0  0  0  0  0  0  0
   -0.5407    2.7014    0.7999 H   0  0  0  0  0  0  0  0  0  0  0  0
   -0.6872    1.0839    1.4743 H   0  0  0  0  0  0  0  0  0  0  0  0
    1.5348    1.8164    0.2543 H   0  0  0  0  0  0  0  0  0  0  0  0
    0.6285    1.4771   -1.2423 H   0  0  0  0  0  0  0  0  0  0  0  0
  1  2  1  0  0  0  0
  2  3  1  0  0  0  0
  3  4  1  0  0  0  0
  4  5  1  0  0  0  0
  5  6  1  0  0  0  0
  1  7  1  0  0  0  0
  1  8  1  0  0  0  0
  1  9  1  0  0  0  0
  2 10  1  0  0  0  0
  2 11  1  0  0  0  0
  3 12  1  0  0  0  0
  3 13  1  0  0  0  0
  4 14  1  0  0  0  0
  4 15  1  0  0  0  0
  5 16  1  0  0  0  0
  5 17  1  0  0  0  0
M  END
