 xtb: 6.7.1 (edcfbbe)
          04112516203D

 17 16  0     0  0            999 V2000
   -3.1160   -1.2350    0.2788 C   0  0  0  0  0  0  0  0  0  0  0  0
   -3.3670    0.2351   -0.0366 C   0  0  0  0  0  0  0  0  0  0  0  0
   -2.2706    1.1767    0.4656 C   0  0  0  0  0  0  0  0  0  0  0  0
   -0.9030    0.9548   -0.1993 C   0  0  0  0  0  0  0  0  0  0  0  0
    0.0045    0.1057    0.6703 C   0  0  0  0  0  0  0  0  0  0  0  0
    1.7444   -0.2078   -0.2122 Br  0  0  0  0  0  0  0  0  0  0  0  0
   -2.2572   -1.6139   -0.2696 H   0  0  0  0  0  0  0  0  0  0  0  0
   -3.9801   -1.8298   -0.0071 H   0  0  0  0  0  0  0  0  0  0  0  0
   -2.9443   -1.3745    1.3440 H   0  0  0  0  0  0  0  0  0  0  0  0
   -3.4766    0.3581   -1.1161 H   0  0  0  0  0  0  0  0  0  0  0  0
   -4.3090    0.5373    0.4257 H   0  0  0  0  0  0  0  0  0  0  0  0
   -2.5921    2.1998    0.2663 H   0  0  0  0  0  0  0  0  0  0  0  0
   -2.1711    1.0710    1.5479 H   0  0  0  0  0  0  0  0  0  0  0  0
   -1.0376    0.4761   -1.1712 H   0  0  0  0  0  0  0  0  0  0  0  0
   -0.4150    1.9161   -0.3727 H   0  0  0  0  0  0  0  0  0  0  0  0
   -0.4041   -0.8831    0.8630 H   0  0  0  0  0  0  0  0  0  0  0  0
    0.2422    0.6010    1.6102 H   0  0  0  0  0  0  0  0  0  0  0  0
  1  2  1  0  0  0  0
  2  3  1  0  0  0  0
  3  4  1  0  0  0  0
  4  5  1  0  0  0  0
  5  6  1  0  0  0  0
  1  7  1  0  0  0  0
  1  8  1  0  0  0  0
  1  9  1  0  0  0  0
  2 10  1  0  0  0  0
  2 11  1  0  0  0  0
  3 12  1  0  0  0  0
  3 13  1  0  0  0  0
  4 14  1  0  0  0  0
  4 15  1  0  0  0  0
  5 16  1  0  0  0  0
  5 17  1  0  0  0  0
M  END
