 xtb: 6.7.1 (edcfbbe)
          04112516013D

 20 19  0     0  0            999 V2000
   -2.3679   -1.2900    0.3028 C   0  0  0  0  0  0  0  0  0  0  0  0
   -2.6842    0.2006    0.3016 C   0  0  0  0  0  0  0  0  0  0  0  0
   -1.6721    1.0296   -0.4906 C   0  0  0  0  0  0  0  0  0  0  0  0
   -0.2845    1.0713    0.1380 C   0  0  0  0  0  0  0  0  0  0  0  0
    0.4228   -0.1390   -0.1700 O   0  0  0  0  0  0  0  0  0  0  0  0
    1.7419   -0.1423   -0.0406 C   0  0  0  0  0  0  0  0  0  0  0  0
    2.3771    0.8255    0.3297 O   0  0  0  0  0  0  0  0  0  0  0  0
    2.3324   -1.4745   -0.3931 C   0  0  0  0  0  0  0  0  0  0  0  0
   -2.3357   -1.6709   -0.7150 H   0  0  0  0  0  0  0  0  0  0  0  0
   -1.4046   -1.4797    0.7672 H   0  0  0  0  0  0  0  0  0  0  0  0
   -3.1305   -1.8365    0.8522 H   0  0  0  0  0  0  0  0  0  0  0  0
   -3.6710    0.3545   -0.1389 H   0  0  0  0  0  0  0  0  0  0  0  0
   -2.7195    0.5670    1.3297 H   0  0  0  0  0  0  0  0  0  0  0  0
   -1.5806    0.6312   -1.5018 H   0  0  0  0  0  0  0  0  0  0  0  0
   -2.0315    2.0569   -0.5582 H   0  0  0  0  0  0  0  0  0  0  0  0
    0.3018    1.9117   -0.2492 H   0  0  0  0  0  0  0  0  0  0  0  0
   -0.3429    1.1703    1.2270 H   0  0  0  0  0  0  0  0  0  0  0  0
    1.6573   -2.0188   -1.0444 H   0  0  0  0  0  0  0  0  0  0  0  0
    2.4773   -2.0399    0.5250 H   0  0  0  0  0  0  0  0  0  0  0  0
    3.3013   -1.3297   -0.8606 H   0  0  0  0  0  0  0  0  0  0  0  0
  1  2  1  0  0  0  0
  2  3  1  0  0  0  0
  3  4  1  0  0  0  0
  4  5  1  0  0  0  0
  5  6  1  0  0  0  0
  6  7  2  0  0  0  0
  6  8  1  0  0  0  0
  1  9  1  0  0  0  0
  1 10  1  0  0  0  0
  1 11  1  0  0  0  0
  2 12  1  0  0  0  0
  2 13  1  0  0  0  0
  3 14  1  0  0  0  0
  3 15  1  0  0  0  0
  4 16  1  0  0  0  0
  4 17  1  0  0  0  0
  8 18  1  0  0  0  0
  8 19  1  0  0  0  0
  8 20  1  0  0  0  0
M  END
