 xtb: 6.7.1 (edcfbbe)
          04112517493D

 26 26  0     0  0            999 V2000
   -3.4296    0.0798   -1.2920 C   0  0  0  0  0  0  0  0  0  0  0  0
   -3.1310   -0.9754   -0.2347 C   0  0  0  0  0  0  0  0  0  0  0  0
   -2.4163   -0.3821    0.9873 C   0  0  0  0  0  0  0  0  0  0  0  0
   -1.0574    0.1498    0.6301 C   0  0  0  0  0  0  0  0  0  0  0  0
   -0.8298    1.5050    0.4744 C   0  0  0  0  0  0  0  0  0  0  0  0
    0.4247    1.9716    0.1117 C   0  0  0  0  0  0  0  0  0  0  0  0
    1.4700    1.0930   -0.1033 C   0  0  0  0  0  0  0  0  0  0  0  0
    1.2522   -0.2888    0.0521 C   0  0  0  0  0  0  0  0  0  0  0  0
   -0.0050   -0.7375    0.4162 C   0  0  0  0  0  0  0  0  0  0  0  0
    2.3405   -1.0879   -0.1766 O   0  0  0  0  0  0  0  0  0  0  0  0
    2.1843   -2.4854   -0.0426 C   0  0  0  0  0  0  0  0  0  0  0  0
    2.7213    1.5048   -0.4612 O   0  0  0  0  0  0  0  0  0  0  0  0
   -4.0685    0.8589   -0.8825 H   0  0  0  0  0  0  0  0  0  0  0  0
   -2.5071    0.5391   -1.6400 H   0  0  0  0  0  0  0  0  0  0  0  0
   -3.9360   -0.3679   -2.1437 H   0  0  0  0  0  0  0  0  0  0  0  0
   -2.5060   -1.7570   -0.6709 H   0  0  0  0  0  0  0  0  0  0  0  0
   -4.0653   -1.4357    0.0927 H   0  0  0  0  0  0  0  0  0  0  0  0
   -2.3140   -1.1604    1.7465 H   0  0  0  0  0  0  0  0  0  0  0  0
   -3.0270    0.4212    1.4019 H   0  0  0  0  0  0  0  0  0  0  0  0
   -1.6307    2.2100    0.6357 H   0  0  0  0  0  0  0  0  0  0  0  0
    0.5906    3.0325   -0.0058 H   0  0  0  0  0  0  0  0  0  0  0  0
   -0.1860   -1.7931    0.5428 H   0  0  0  0  0  0  0  0  0  0  0  0
    1.8985   -2.7559    0.9777 H   0  0  0  0  0  0  0  0  0  0  0  0
    3.1615   -2.9042   -0.2719 H   0  0  0  0  0  0  0  0  0  0  0  0
    1.4442   -2.8704   -0.7497 H   0  0  0  0  0  0  0  0  0  0  0  0
    2.7425    2.4714   -0.5307 H   0  0  0  0  0  0  0  0  0  0  0  0
  1  2  1  0  0  0  0
  2  3  1  0  0  0  0
  3  4  1  0  0  0  0
  4  5  4  0  0  0  0
  5  6  4  0  0  0  0
  6  7  4  0  0  0  0
  7  8  4  0  0  0  0
  4  9  4  0  0  0  0
  8  9  4  0  0  0  0
  8 10  1  0  0  0  0
 10 11  1  0  0  0  0
  7 12  1  0  0  0  0
  1 13  1  0  0  0  0
  1 14  1  0  0  0  0
  1 15  1  0  0  0  0
  2 16  1  0  0  0  0
  2 17  1  0  0  0  0
  3 18  1  0  0  0  0
  3 19  1  0  0  0  0
  5 20  1  0  0  0  0
  6 21  1  0  0  0  0
  9 22  1  0  0  0  0
 11 23  1  0  0  0  0
 11 24  1  0  0  0  0
 11 25  1  0  0  0  0
 12 26  1  0  0  0  0
M  END
