 xtb: 6.7.1 (edcfbbe)
          04112516093D

 19 18  0     0  0            999 V2000
    3.4145   -0.2986    0.0719 C   0  0  0  0  0  0  0  0  0  0  0  0
    2.1847    0.5900   -0.0706 C   0  0  0  0  0  0  0  0  0  0  0  0
    0.8924   -0.2132    0.0502 C   0  0  0  0  0  0  0  0  0  0  0  0
   -0.3452    0.6694   -0.0872 C   0  0  0  0  0  0  0  0  0  0  0  0
   -1.6356   -0.1081   -0.0204 C   0  0  0  0  0  0  0  0  0  0  0  0
   -1.6751   -1.3226   -0.0473 O   0  0  0  0  0  0  0  0  0  0  0  0
   -2.8747    0.7342    0.0914 C   0  0  0  0  0  0  0  0  0  0  0  0
    3.4220   -1.0643   -0.7005 H   0  0  0  0  0  0  0  0  0  0  0  0
    4.3244    0.2896   -0.0169 H   0  0  0  0  0  0  0  0  0  0  0  0
    3.4166   -0.7928    1.0408 H   0  0  0  0  0  0  0  0  0  0  0  0
    2.2104    1.0895   -1.0414 H   0  0  0  0  0  0  0  0  0  0  0  0
    2.2043    1.3612    0.7023 H   0  0  0  0  0  0  0  0  0  0  0  0
    0.8633   -0.7216    1.0167 H   0  0  0  0  0  0  0  0  0  0  0  0
    0.8637   -0.9875   -0.7197 H   0  0  0  0  0  0  0  0  0  0  0  0
   -0.3582    1.4382    0.6872 H   0  0  0  0  0  0  0  0  0  0  0  0
   -0.3269    1.1827   -1.0522 H   0  0  0  0  0  0  0  0  0  0  0  0
   -2.8116    1.6017   -0.5578 H   0  0  0  0  0  0  0  0  0  0  0  0
   -3.7545    0.1427   -0.1458 H   0  0  0  0  0  0  0  0  0  0  0  0
   -2.9581    1.0840    1.1187 H   0  0  0  0  0  0  0  0  0  0  0  0
  1  2  1  0  0  0  0
  2  3  1  0  0  0  0
  3  4  1  0  0  0  0
  4  5  1  0  0  0  0
  5  6  2  0  0  0  0
  5  7  1  0  0  0  0
  1  8  1  0  0  0  0
  1  9  1  0  0  0  0
  1 10  1  0  0  0  0
  2 11  1  0  0  0  0
  2 12  1  0  0  0  0
  3 13  1  0  0  0  0
  3 14  1  0  0  0  0
  4 15  1  0  0  0  0
  4 16  1  0  0  0  0
  7 17  1  0  0  0  0
  7 18  1  0  0  0  0
  7 19  1  0  0  0  0
M  END
