 xtb: 6.7.1 (edcfbbe)
          04112516113D

 20 19  0     0  0            999 V2000
    3.9871    0.3953   -0.4658 C   0  0  0  0  0  0  0  0  0  0  0  0
    2.7172   -0.3326   -0.1597 C   0  0  0  0  0  0  0  0  0  0  0  0
    2.6054   -1.5307   -0.0118 O   0  0  0  0  0  0  0  0  0  0  0  0
    1.6852    0.5066   -0.0446 O   0  0  0  0  0  0  0  0  0  0  0  0
    0.4158   -0.0594    0.2730 C   0  0  0  0  0  0  0  0  0  0  0  0
   -0.5969    1.0821    0.3335 C   0  0  0  0  0  0  0  0  0  0  0  0
   -1.8583    0.6135    0.8017 O   0  0  0  0  0  0  0  0  0  0  0  0
   -2.6574   -0.0180   -0.0642 C   0  0  0  0  0  0  0  0  0  0  0  0
   -2.3518   -0.2133   -1.2206 O   0  0  0  0  0  0  0  0  0  0  0  0
   -3.9493   -0.4177    0.5736 C   0  0  0  0  0  0  0  0  0  0  0  0
    4.5253    0.5524    0.4667 H   0  0  0  0  0  0  0  0  0  0  0  0
    3.7630    1.3567   -0.9144 H   0  0  0  0  0  0  0  0  0  0  0  0
    4.6067   -0.2121   -1.1181 H   0  0  0  0  0  0  0  0  0  0  0  0
    0.1372   -0.7885   -0.4961 H   0  0  0  0  0  0  0  0  0  0  0  0
    0.4754   -0.5772    1.2367 H   0  0  0  0  0  0  0  0  0  0  0  0
   -0.7115    1.5238   -0.6608 H   0  0  0  0  0  0  0  0  0  0  0  0
   -0.2752    1.8351    1.0527 H   0  0  0  0  0  0  0  0  0  0  0  0
   -4.1684   -1.4523    0.3257 H   0  0  0  0  0  0  0  0  0  0  0  0
   -4.7452    0.1990    0.1623 H   0  0  0  0  0  0  0  0  0  0  0  0
   -3.8906   -0.2775    1.6470 H   0  0  0  0  0  0  0  0  0  0  0  0
  1  2  1  0  0  0  0
  2  3  2  0  0  0  0
  2  4  1  0  0  0  0
  4  5  1  0  0  0  0
  5  6  1  0  0  0  0
  6  7  1  0  0  0  0
  7  8  1  0  0  0  0
  8  9  2  0  0  0  0
  8 10  1  0  0  0  0
  1 11  1  0  0  0  0
  1 12  1  0  0  0  0
  1 13  1  0  0  0  0
  5 14  1  0  0  0  0
  5 15  1  0  0  0  0
  6 16  1  0  0  0  0
  6 17  1  0  0  0  0
 10 18  1  0  0  0  0
 10 19  1  0  0  0  0
 10 20  1  0  0  0  0
M  END
