 xtb: 6.7.1 (edcfbbe)
          04112514133D

 23 22  0     0  0            999 V2000
    3.0122   -0.1259   -0.5701 C   0  0  0  0  0  0  0  0  0  0  0  0
    1.5903    0.3465   -0.2851 C   0  0  0  0  0  0  0  0  0  0  0  0
    0.8556   -0.6280    0.6330 C   0  0  0  0  0  0  0  0  0  0  0  0
   -0.4572   -0.1112    1.2293 C   0  0  0  0  0  0  0  0  0  0  0  0
   -1.6515    0.1082    0.2820 C   0  0  0  0  0  0  0  0  0  0  0  0
   -1.5983    1.4450   -0.4568 C   0  0  0  0  0  0  0  0  0  0  0  0
   -1.8332   -1.0429   -0.7048 C   0  0  0  0  0  0  0  0  0  0  0  0
    3.5855   -0.1923    0.3521 H   0  0  0  0  0  0  0  0  0  0  0  0
    2.9999   -1.1091   -1.0355 H   0  0  0  0  0  0  0  0  0  0  0  0
    3.5183    0.5654   -1.2400 H   0  0  0  0  0  0  0  0  0  0  0  0
    1.0591    0.4424   -1.2327 H   0  0  0  0  0  0  0  0  0  0  0  0
    1.6231    1.3324    0.1838 H   0  0  0  0  0  0  0  0  0  0  0  0
    0.6777   -1.5633    0.1005 H   0  0  0  0  0  0  0  0  0  0  0  0
    1.5163   -0.8593    1.4737 H   0  0  0  0  0  0  0  0  0  0  0  0
   -0.7689   -0.8411    1.9817 H   0  0  0  0  0  0  0  0  0  0  0  0
   -0.2586    0.8266    1.7542 H   0  0  0  0  0  0  0  0  0  0  0  0
   -2.5416    0.1378    0.9240 H   0  0  0  0  0  0  0  0  0  0  0  0
   -2.5337    1.6114   -0.9872 H   0  0  0  0  0  0  0  0  0  0  0  0
   -1.4546    2.2637    0.2445 H   0  0  0  0  0  0  0  0  0  0  0  0
   -0.7914    1.4684   -1.1819 H   0  0  0  0  0  0  0  0  0  0  0  0
   -2.7730   -0.9296   -1.2406 H   0  0  0  0  0  0  0  0  0  0  0  0
   -1.8502   -1.9965   -0.1819 H   0  0  0  0  0  0  0  0  0  0  0  0
   -1.0285   -1.0586   -1.4350 H   0  0  0  0  0  0  0  0  0  0  0  0
  1  2  1  0  0  0  0
  2  3  1  0  0  0  0
  3  4  1  0  0  0  0
  4  5  1  0  0  0  0
  5  6  1  0  0  0  0
  5  7  1  0  0  0  0
  1  8  1  0  0  0  0
  1  9  1  0  0  0  0
  1 10  1  0  0  0  0
  2 11  1  0  0  0  0
  2 12  1  0  0  0  0
  3 13  1  0  0  0  0
  3 14  1  0  0  0  0
  4 15  1  0  0  0  0
  4 16  1  0  0  0  0
  5 17  1  0  0  0  0
  6 18  1  0  0  0  0
  6 19  1  0  0  0  0
  6 20  1  0  0  0  0
  7 21  1  0  0  0  0
  7 22  1  0  0  0  0
  7 23  1  0  0  0  0
M  END
