 xtb: 6.7.1 (edcfbbe)
          04112516153D

 26 25  0     0  0            999 V2000
    1.1476    0.0523   -1.5460 C   0  0  0  0  0  0  0  0  0  0  0  0
    1.6341   -0.2916   -0.1419 C   0  0  0  0  0  0  0  0  0  0  0  0
    1.7385   -1.8077    0.0466 C   0  0  0  0  0  0  0  0  0  0  0  0
    0.7698    0.2658    0.9509 C   0  0  0  0  0  0  0  0  0  0  0  0
   -0.4815    0.2677    1.0949 N   0  0  0  0  0  0  0  0  0  0  0  0
   -1.2491   -0.3436    0.0855 O   0  0  0  0  0  0  0  0  0  0  0  0
   -2.6038   -0.1178    0.2115 C   0  0  0  0  0  0  0  0  0  0  0  0
   -3.0918    0.6440    1.0161 O   0  0  0  0  0  0  0  0  0  0  0  0
   -3.2535   -0.8465   -0.6966 N   0  0  0  0  0  0  0  0  0  0  0  0
   -4.6917   -0.8090   -0.8463 C   0  0  0  0  0  0  0  0  0  0  0  0
    3.3517    0.3699    0.1055 S   0  0  0  0  0  0  0  0  0  0  0  0
    3.1111    2.1458   -0.1946 C   0  0  0  0  0  0  0  0  0  0  0  0
    0.9117    1.1109   -1.6305 H   0  0  0  0  0  0  0  0  0  0  0  0
    1.9221   -0.1990   -2.2669 H   0  0  0  0  0  0  0  0  0  0  0  0
    0.2518   -0.5170   -1.7785 H   0  0  0  0  0  0  0  0  0  0  0  0
    2.1712   -2.0384    1.0174 H   0  0  0  0  0  0  0  0  0  0  0  0
    2.3749   -2.2278   -0.7277 H   0  0  0  0  0  0  0  0  0  0  0  0
    0.7493   -2.2553   -0.0165 H   0  0  0  0  0  0  0  0  0  0  0  0
    1.2748    0.7121    1.7984 H   0  0  0  0  0  0  0  0  0  0  0  0
   -2.7233   -1.4524   -1.3038 H   0  0  0  0  0  0  0  0  0  0  0  0
   -5.1144   -1.7947   -0.6571 H   0  0  0  0  0  0  0  0  0  0  0  0
   -4.9551   -0.4845   -1.8519 H   0  0  0  0  0  0  0  0  0  0  0  0
   -5.0847   -0.1005   -0.1202 H   0  0  0  0  0  0  0  0  0  0  0  0
    2.2338    2.4902    0.3445 H   0  0  0  0  0  0  0  0  0  0  0  0
    3.0146    2.3307   -1.2596 H   0  0  0  0  0  0  0  0  0  0  0  0
    4.0003    2.6352    0.1878 H   0  0  0  0  0  0  0  0  0  0  0  0
  1  2  1  0  0  0  0
  2  3  1  0  0  0  0
  2  4  1  0  0  0  0
  4  5  2  0  0  0  0
  5  6  1  0  0  0  0
  6  7  1  0  0  0  0
  7  8  2  0  0  0  0
  7  9  4  0  0  0  0
  9 10  1  0  0  0  0
  2 11  1  0  0  0  0
 11 12  1  0  0  0  0
  1 13  1  0  0  0  0
  1 14  1  0  0  0  0
  1 15  1  0  0  0  0
  3 16  1  0  0  0  0
  3 17  1  0  0  0  0
  3 18  1  0  0  0  0
  4 19  1  0  0  0  0
  9 20  1  0  0  0  0
 10 21  1  0  0  0  0
 10 22  1  0  0  0  0
 10 23  1  0  0  0  0
 12 24  1  0  0  0  0
 12 25  1  0  0  0  0
 12 26  1  0  0  0  0
M  END
