 xtb: 6.7.1 (edcfbbe)
          04112516423D

 26 25  0     0  0            999 V2000
    3.4005   -0.4465   -0.8283 C   0  0  0  0  0  0  0  0  0  0  0  0
    1.9653   -0.5620   -0.3319 C   0  0  0  0  0  0  0  0  0  0  0  0
    1.7159   -1.9391    0.2866 C   0  0  0  0  0  0  0  0  0  0  0  0
    0.9919   -0.2938   -1.4354 C   0  0  0  0  0  0  0  0  0  0  0  0
   -0.2657   -0.1859   -1.4145 N   0  0  0  0  0  0  0  0  0  0  0  0
   -0.8803   -0.3313   -0.1575 O   0  0  0  0  0  0  0  0  0  0  0  0
   -2.2298   -0.0611   -0.1525 C   0  0  0  0  0  0  0  0  0  0  0  0
   -2.8609    0.2734   -1.1310 O   0  0  0  0  0  0  0  0  0  0  0  0
   -2.6956   -0.2278    1.0851 N   0  0  0  0  0  0  0  0  0  0  0  0
   -4.0806   -0.0090    1.4381 C   0  0  0  0  0  0  0  0  0  0  0  0
    1.6857    0.6700    1.0423 S   0  0  0  0  0  0  0  0  0  0  0  0
    1.6446    2.2517    0.1536 C   0  0  0  0  0  0  0  0  0  0  0  0
    3.5844    0.5261   -1.2787 H   0  0  0  0  0  0  0  0  0  0  0  0
    4.0878   -0.5806    0.0030 H   0  0  0  0  0  0  0  0  0  0  0  0
    3.5957   -1.2143   -1.5737 H   0  0  0  0  0  0  0  0  0  0  0  0
    1.9026   -2.7133   -0.4540 H   0  0  0  0  0  0  0  0  0  0  0  0
    0.6895   -2.0212    0.6336 H   0  0  0  0  0  0  0  0  0  0  0  0
    2.3828   -2.0830    1.1325 H   0  0  0  0  0  0  0  0  0  0  0  0
    1.3947   -0.1556   -2.4305 H   0  0  0  0  0  0  0  0  0  0  0  0
   -2.0440   -0.4795    1.8134 H   0  0  0  0  0  0  0  0  0  0  0  0
   -4.6165    0.2662    0.5321 H   0  0  0  0  0  0  0  0  0  0  0  0
   -4.1607    0.7961    2.1672 H   0  0  0  0  0  0  0  0  0  0  0  0
   -4.5085   -0.9209    1.8518 H   0  0  0  0  0  0  0  0  0  0  0  0
    0.7963    2.2732   -0.5252 H   0  0  0  0  0  0  0  0  0  0  0  0
    2.5764    2.4033   -0.3812 H   0  0  0  0  0  0  0  0  0  0  0  0
    1.5283    3.0127    0.9180 H   0  0  0  0  0  0  0  0  0  0  0  0
  1  2  1  0  0  0  0
  2  3  1  0  0  0  0
  2  4  1  0  0  0  0
  4  5  2  0  0  0  0
  5  6  1  0  0  0  0
  6  7  1  0  0  0  0
  7  8  2  0  0  0  0
  7  9  4  0  0  0  0
  9 10  1  0  0  0  0
  2 11  1  0  0  0  0
 11 12  1  0  0  0  0
  1 13  1  0  0  0  0
  1 14  1  0  0  0  0
  1 15  1  0  0  0  0
  3 16  1  0  0  0  0
  3 17  1  0  0  0  0
  3 18  1  0  0  0  0
  4 19  1  0  0  0  0
  9 20  1  0  0  0  0
 10 21  1  0  0  0  0
 10 22  1  0  0  0  0
 10 23  1  0  0  0  0
 12 24  1  0  0  0  0
 12 25  1  0  0  0  0
 12 26  1  0  0  0  0
M  END
