 xtb: 6.7.1 (edcfbbe)
          04112514083D

 16 15  0     0  0            999 V2000
   -1.7400   -1.1900    0.0393 C   0  0  0  0  0  0  0  0  0  0  0  0
   -1.8037    0.1832   -0.2992 O   0  0  0  0  0  0  0  0  0  0  0  0
   -0.8391    0.9873    0.3433 C   0  0  0  0  0  0  0  0  0  0  0  0
    0.5707    0.8513   -0.2404 C   0  0  0  0  0  0  0  0  0  0  0  0
    1.2064   -0.2930    0.2974 O   0  0  0  0  0  0  0  0  0  0  0  0
    2.5423   -0.4361   -0.1349 C   0  0  0  0  0  0  0  0  0  0  0  0
   -1.9183   -1.3289    1.1109 H   0  0  0  0  0  0  0  0  0  0  0  0
   -0.7684   -1.6189   -0.2158 H   0  0  0  0  0  0  0  0  0  0  0  0
   -2.5265   -1.6750   -0.5335 H   0  0  0  0  0  0  0  0  0  0  0  0
   -1.1851    2.0121    0.1985 H   0  0  0  0  0  0  0  0  0  0  0  0
   -0.8009    0.7555    1.4155 H   0  0  0  0  0  0  0  0  0  0  0  0
    1.1531    1.7481    0.0137 H   0  0  0  0  0  0  0  0  0  0  0  0
    0.5074    0.7705   -1.3352 H   0  0  0  0  0  0  0  0  0  0  0  0
    2.5921   -0.5481   -1.2234 H   0  0  0  0  0  0  0  0  0  0  0  0
    2.9234   -1.3329    0.3467 H   0  0  0  0  0  0  0  0  0  0  0  0
    3.1421    0.4306    0.1631 H   0  0  0  0  0  0  0  0  0  0  0  0
  1  2  1  0  0  0  0
  2  3  1  0  0  0  0
  3  4  1  0  0  0  0
  4  5  1  0  0  0  0
  5  6  1  0  0  0  0
  1  7  1  0  0  0  0
  1  8  1  0  0  0  0
  1  9  1  0  0  0  0
  3 10  1  0  0  0  0
  3 11  1  0  0  0  0
  4 12  1  0  0  0  0
  4 13  1  0  0  0  0
  6 14  1  0  0  0  0
  6 15  1  0  0  0  0
  6 16  1  0  0  0  0
M  END
