 xtb: 6.7.1 (edcfbbe)
          04112516593D

 20 19  0     0  0            999 V2000
   -3.6028   -0.7359    0.1190 C   0  0  0  0  0  0  0  0  0  0  0  0
   -2.1630   -0.3663    0.4543 C   0  0  0  0  0  0  0  0  0  0  0  0
   -1.6151    0.6861   -0.5081 C   0  0  0  0  0  0  0  0  0  0  0  0
   -0.1770    1.0653   -0.1874 C   0  0  0  0  0  0  0  0  0  0  0  0
    0.6651   -0.0687   -0.4425 O   0  0  0  0  0  0  0  0  0  0  0  0
    1.8875   -0.0687    0.0717 C   0  0  0  0  0  0  0  0  0  0  0  0
    2.3285    0.8471    0.7374 O   0  0  0  0  0  0  0  0  0  0  0  0
    2.6306   -1.3280   -0.2584 C   0  0  0  0  0  0  0  0  0  0  0  0
   -4.2440    0.1402    0.1788 H   0  0  0  0  0  0  0  0  0  0  0  0
   -3.6674   -1.1407   -0.8879 H   0  0  0  0  0  0  0  0  0  0  0  0
   -3.9752   -1.4831    0.8149 H   0  0  0  0  0  0  0  0  0  0  0  0
   -2.1135    0.0190    1.4752 H   0  0  0  0  0  0  0  0  0  0  0  0
   -1.5344   -1.2570    0.4023 H   0  0  0  0  0  0  0  0  0  0  0  0
   -1.6544    0.3031   -1.5286 H   0  0  0  0  0  0  0  0  0  0  0  0
   -2.2231    1.5895   -0.4542 H   0  0  0  0  0  0  0  0  0  0  0  0
    0.1662    1.8926   -0.8170 H   0  0  0  0  0  0  0  0  0  0  0  0
   -0.0585    1.3593    0.8610 H   0  0  0  0  0  0  0  0  0  0  0  0
    2.1292   -1.8535   -1.0636 H   0  0  0  0  0  0  0  0  0  0  0  0
    2.6552   -1.9565    0.6292 H   0  0  0  0  0  0  0  0  0  0  0  0
    3.6543   -1.0839   -0.5262 H   0  0  0  0  0  0  0  0  0  0  0  0
  1  2  1  0  0  0  0
  2  3  1  0  0  0  0
  3  4  1  0  0  0  0
  4  5  1  0  0  0  0
  5  6  1  0  0  0  0
  6  7  2  0  0  0  0
  6  8  1  0  0  0  0
  1  9  1  0  0  0  0
  1 10  1  0  0  0  0
  1 11  1  0  0  0  0
  2 12  1  0  0  0  0
  2 13  1  0  0  0  0
  3 14  1  0  0  0  0
  3 15  1  0  0  0  0
  4 16  1  0  0  0  0
  4 17  1  0  0  0  0
  8 18  1  0  0  0  0
  8 19  1  0  0  0  0
  8 20  1  0  0  0  0
M  END
