 xtb: 6.7.1 (edcfbbe)
          04112516053D

 23 23  0     0  0            999 V2000
   -3.9844    0.8225   -0.0377 C   0  0  0  0  0  0  0  0  0  0  0  0
   -3.1250   -0.3086    0.0351 O   0  0  0  0  0  0  0  0  0  0  0  0
   -1.7792   -0.1771    0.0106 C   0  0  0  0  0  0  0  0  0  0  0  0
   -1.0685   -1.3676    0.0718 C   0  0  0  0  0  0  0  0  0  0  0  0
    0.3223   -1.4112    0.0414 C   0  0  0  0  0  0  0  0  0  0  0  0
    1.0443   -0.2090   -0.0469 C   0  0  0  0  0  0  0  0  0  0  0  0
    0.3673    1.0008   -0.0684 C   0  0  0  0  0  0  0  0  0  0  0  0
   -1.0507    1.0216   -0.0554 C   0  0  0  0  0  0  0  0  0  0  0  0
   -1.6634    2.2189   -0.1098 O   0  0  0  0  0  0  0  0  0  0  0  0
    0.8955    2.2596   -0.1423 O   0  0  0  0  0  0  0  0  0  0  0  0
    2.1425    2.5795    0.4631 C   0  0  0  0  0  0  0  0  0  0  0  0
    2.7735   -0.2870   -0.1854 Cl  0  0  0  0  0  0  0  0  0  0  0  0
    0.9727   -2.7114    0.0999 C   0  0  0  0  0  0  0  0  0  0  0  0
    0.3921   -3.7779    0.1571 O   0  0  0  0  0  0  0  0  0  0  0  0
   -3.8411    1.4846    0.8163 H   0  0  0  0  0  0  0  0  0  0  0  0
   -4.9875    0.4025   -0.0168 H   0  0  0  0  0  0  0  0  0  0  0  0
   -3.8328    1.3767   -0.9640 H   0  0  0  0  0  0  0  0  0  0  0  0
   -1.6106   -2.2975    0.1357 H   0  0  0  0  0  0  0  0  0  0  0  0
   -0.9870    2.9221   -0.1442 H   0  0  0  0  0  0  0  0  0  0  0  0
    2.2751    2.0448    1.4034 H   0  0  0  0  0  0  0  0  0  0  0  0
    2.0977    3.6508    0.6508 H   0  0  0  0  0  0  0  0  0  0  0  0
    2.9747    2.3642   -0.2070 H   0  0  0  0  0  0  0  0  0  0  0  0
    2.0750   -2.6925    0.0949 H   0  0  0  0  0  0  0  0  0  0  0  0
  1  2  1  0  0  0  0
  2  3  1  0  0  0  0
  3  4  4  0  0  0  0
  4  5  4  0  0  0  0
  5  6  4  0  0  0  0
  6  7  4  0  0  0  0
  3  8  4  0  0  0  0
  7  8  4  0  0  0  0
  8  9  1  0  0  0  0
  7 10  1  0  0  0  0
 10 11  1  0  0  0  0
  6 12  1  0  0  0  0
  5 13  1  0  0  0  0
 13 14  2  0  0  0  0
  1 15  1  0  0  0  0
  1 16  1  0  0  0  0
  1 17  1  0  0  0  0
  4 18  1  0  0  0  0
  9 19  1  0  0  0  0
 11 20  1  0  0  0  0
 11 21  1  0  0  0  0
 11 22  1  0  0  0  0
 13 23  1  0  0  0  0
M  END
