 xtb: 6.7.1 (edcfbbe)
          04112514373D

 14 13  0     0  0            999 V2000
    0.6783   -0.0001   -0.3554 C   0  0  0  0  0  0  0  0  0  0  0  0
   -0.6783    0.0001    0.3554 C   0  0  0  0  0  0  0  0  0  0  0  0
   -1.8072   -0.0002   -0.6610 C   0  0  0  0  0  0  0  0  0  0  0  0
   -3.4023    0.0001    0.1717 Cl  0  0  0  0  0  0  0  0  0  0  0  0
    1.8072    0.0001    0.6610 C   0  0  0  0  0  0  0  0  0  0  0  0
    3.4023   -0.0001   -0.1716 Cl  0  0  0  0  0  0  0  0  0  0  0  0
    0.7620    0.8823   -0.9906 H   0  0  0  0  0  0  0  0  0  0  0  0
    0.7620   -0.8829   -0.9902 H   0  0  0  0  0  0  0  0  0  0  0  0
   -0.7620    0.8828    0.9902 H   0  0  0  0  0  0  0  0  0  0  0  0
   -0.7620   -0.8824    0.9906 H   0  0  0  0  0  0  0  0  0  0  0  0
   -1.7882    0.8921   -1.2839 H   0  0  0  0  0  0  0  0  0  0  0  0
   -1.7883   -0.8928   -1.2834 H   0  0  0  0  0  0  0  0  0  0  0  0
    1.7883    0.8927    1.2835 H   0  0  0  0  0  0  0  0  0  0  0  0
    1.7883   -0.8922    1.2839 H   0  0  0  0  0  0  0  0  0  0  0  0
  1  2  1  0  0  0  0
  2  3  1  0  0  0  0
  3  4  1  0  0  0  0
  1  5  1  0  0  0  0
  5  6  1  0  0  0  0
  1  7  1  0  0  0  0
  1  8  1  0  0  0  0
  2  9  1  0  0  0  0
  2 10  1  0  0  0  0
  3 11  1  0  0  0  0
  3 12  1  0  0  0  0
  5 13  1  0  0  0  0
  5 14  1  0  0  0  0
M  END
