 xtb: 6.7.1 (edcfbbe)
          04112516293D

 20 19  0     0  0            999 V2000
   -2.8495   -0.4709    1.0364 C   0  0  0  0  0  0  0  0  0  0  0  0
   -2.3273   -0.5457   -0.3941 C   0  0  0  0  0  0  0  0  0  0  0  0
   -1.6486    0.7457   -0.8551 C   0  0  0  0  0  0  0  0  0  0  0  0
   -0.3208    1.0082   -0.1589 C   0  0  0  0  0  0  0  0  0  0  0  0
    0.6038   -0.0252   -0.5301 O   0  0  0  0  0  0  0  0  0  0  0  0
    1.7505   -0.0973    0.1307 C   0  0  0  0  0  0  0  0  0  0  0  0
    2.0507    0.6704    1.0239 O   0  0  0  0  0  0  0  0  0  0  0  0
    2.6045   -1.2312   -0.3513 C   0  0  0  0  0  0  0  0  0  0  0  0
   -3.3799   -1.3854    1.2897 H   0  0  0  0  0  0  0  0  0  0  0  0
   -2.0365   -0.3468    1.7476 H   0  0  0  0  0  0  0  0  0  0  0  0
   -3.5346    0.3663    1.1484 H   0  0  0  0  0  0  0  0  0  0  0  0
   -1.6180   -1.3700   -0.4844 H   0  0  0  0  0  0  0  0  0  0  0  0
   -3.1639   -0.7503   -1.0644 H   0  0  0  0  0  0  0  0  0  0  0  0
   -1.4607    0.6877   -1.9279 H   0  0  0  0  0  0  0  0  0  0  0  0
   -2.3026    1.5966   -0.6636 H   0  0  0  0  0  0  0  0  0  0  0  0
    0.1004    1.9714   -0.4655 H   0  0  0  0  0  0  0  0  0  0  0  0
   -0.4183    1.0152    0.9308 H   0  0  0  0  0  0  0  0  0  0  0  0
    3.6097   -0.8664   -0.5427 H   0  0  0  0  0  0  0  0  0  0  0  0
    2.1729   -1.6657   -1.2462 H   0  0  0  0  0  0  0  0  0  0  0  0
    2.6653   -1.9800    0.4350 H   0  0  0  0  0  0  0  0  0  0  0  0
  1  2  1  0  0  0  0
  2  3  1  0  0  0  0
  3  4  1  0  0  0  0
  4  5  1  0  0  0  0
  5  6  1  0  0  0  0
  6  7  2  0  0  0  0
  6  8  1  0  0  0  0
  1  9  1  0  0  0  0
  1 10  1  0  0  0  0
  1 11  1  0  0  0  0
  2 12  1  0  0  0  0
  2 13  1  0  0  0  0
  3 14  1  0  0  0  0
  3 15  1  0  0  0  0
  4 16  1  0  0  0  0
  4 17  1  0  0  0  0
  8 18  1  0  0  0  0
  8 19  1  0  0  0  0
  8 20  1  0  0  0  0
M  END
