 xtb: 6.7.1 (edcfbbe)
          04112514133D

 23 22  0     0  0            999 V2000
    3.1897   -0.4409    0.5009 C   0  0  0  0  0  0  0  0  0  0  0  0
    1.7055   -0.6385    0.2135 C   0  0  0  0  0  0  0  0  0  0  0  0
    1.1110    0.5643   -0.5156 C   0  0  0  0  0  0  0  0  0  0  0  0
   -0.3480    0.3821   -0.9388 C   0  0  0  0  0  0  0  0  0  0  0  0
   -1.3395    0.2691    0.2342 C   0  0  0  0  0  0  0  0  0  0  0  0
   -2.5949    1.0982   -0.0386 C   0  0  0  0  0  0  0  0  0  0  0  0
   -1.7376   -1.1828    0.4973 C   0  0  0  0  0  0  0  0  0  0  0  0
    3.5958   -1.3017    1.0266 H   0  0  0  0  0  0  0  0  0  0  0  0
    3.7441   -0.3110   -0.4261 H   0  0  0  0  0  0  0  0  0  0  0  0
    3.3433    0.4423    1.1172 H   0  0  0  0  0  0  0  0  0  0  0  0
    1.1789   -0.7941    1.1564 H   0  0  0  0  0  0  0  0  0  0  0  0
    1.5719   -1.5330   -0.3994 H   0  0  0  0  0  0  0  0  0  0  0  0
    1.1911    1.4465    0.1246 H   0  0  0  0  0  0  0  0  0  0  0  0
    1.7073    0.7557   -1.4117 H   0  0  0  0  0  0  0  0  0  0  0  0
   -0.6220    1.2433   -1.5521 H   0  0  0  0  0  0  0  0  0  0  0  0
   -0.4298   -0.5042   -1.5714 H   0  0  0  0  0  0  0  0  0  0  0  0
   -0.8614    0.6678    1.1356 H   0  0  0  0  0  0  0  0  0  0  0  0
   -3.2972    1.0096    0.7874 H   0  0  0  0  0  0  0  0  0  0  0  0
   -2.3435    2.1490   -0.1624 H   0  0  0  0  0  0  0  0  0  0  0  0
   -3.0869    0.7513   -0.9450 H   0  0  0  0  0  0  0  0  0  0  0  0
   -2.2760   -1.5843   -0.3590 H   0  0  0  0  0  0  0  0  0  0  0  0
   -2.3865   -1.2469    1.3682 H   0  0  0  0  0  0  0  0  0  0  0  0
   -0.8642   -1.8038    0.6745 H   0  0  0  0  0  0  0  0  0  0  0  0
  1  2  1  0  0  0  0
  2  3  1  0  0  0  0
  3  4  1  0  0  0  0
  4  5  1  0  0  0  0
  5  6  1  0  0  0  0
  5  7  1  0  0  0  0
  1  8  1  0  0  0  0
  1  9  1  0  0  0  0
  1 10  1  0  0  0  0
  2 11  1  0  0  0  0
  2 12  1  0  0  0  0
  3 13  1  0  0  0  0
  3 14  1  0  0  0  0
  4 15  1  0  0  0  0
  4 16  1  0  0  0  0
  5 17  1  0  0  0  0
  6 18  1  0  0  0  0
  6 19  1  0  0  0  0
  6 20  1  0  0  0  0
  7 21  1  0  0  0  0
  7 22  1  0  0  0  0
  7 23  1  0  0  0  0
M  END
