 xtb: 6.7.1 (edcfbbe)
          04112516153D

 26 25  0     0  0            999 V2000
    0.7007   -0.2686   -1.5541 C   0  0  0  0  0  0  0  0  0  0  0  0
    1.4973   -0.3708   -0.2607 C   0  0  0  0  0  0  0  0  0  0  0  0
    2.8906   -0.9426   -0.5183 C   0  0  0  0  0  0  0  0  0  0  0  0
    0.8859   -1.1801    0.8417 C   0  0  0  0  0  0  0  0  0  0  0  0
   -0.2477   -1.6812    1.0672 N   0  0  0  0  0  0  0  0  0  0  0  0
   -1.3050   -1.5009    0.1370 O   0  0  0  0  0  0  0  0  0  0  0  0
   -1.9809   -0.3164    0.2026 C   0  0  0  0  0  0  0  0  0  0  0  0
   -1.6154    0.6344    0.8667 O   0  0  0  0  0  0  0  0  0  0  0  0
   -3.0598   -0.3790   -0.5792 N   0  0  0  0  0  0  0  0  0  0  0  0
   -3.9873    0.7206   -0.7276 C   0  0  0  0  0  0  0  0  0  0  0  0
    1.6094    1.3167    0.5480 S   0  0  0  0  0  0  0  0  0  0  0  0
    2.9137    2.1267   -0.4382 C   0  0  0  0  0  0  0  0  0  0  0  0
    1.3117    0.1916   -2.3272 H   0  0  0  0  0  0  0  0  0  0  0  0
    0.4011   -1.2595   -1.8906 H   0  0  0  0  0  0  0  0  0  0  0  0
   -0.1881    0.3435   -1.4162 H   0  0  0  0  0  0  0  0  0  0  0  0
    3.5041   -0.8832    0.3770 H   0  0  0  0  0  0  0  0  0  0  0  0
    3.3811   -0.4048   -1.3240 H   0  0  0  0  0  0  0  0  0  0  0  0
    2.7966   -1.9870   -0.8098 H   0  0  0  0  0  0  0  0  0  0  0  0
    1.5740   -1.4089    1.6488 H   0  0  0  0  0  0  0  0  0  0  0  0
   -3.2550   -1.2502   -1.0487 H   0  0  0  0  0  0  0  0  0  0  0  0
   -3.6115    1.5560   -0.1401 H   0  0  0  0  0  0  0  0  0  0  0  0
   -4.9726    0.4354   -0.3616 H   0  0  0  0  0  0  0  0  0  0  0  0
   -4.0553    1.0120   -1.7748 H   0  0  0  0  0  0  0  0  0  0  0  0
    3.8755    1.6689   -0.2387 H   0  0  0  0  0  0  0  0  0  0  0  0
    2.9142    3.1560   -0.0961 H   0  0  0  0  0  0  0  0  0  0  0  0
    2.6583    2.0885   -1.4912 H   0  0  0  0  0  0  0  0  0  0  0  0
  1  2  1  0  0  0  0
  2  3  1  0  0  0  0
  2  4  1  0  0  0  0
  4  5  2  0  0  0  0
  5  6  1  0  0  0  0
  6  7  1  0  0  0  0
  7  8  2  0  0  0  0
  7  9  4  0  0  0  0
  9 10  1  0  0  0  0
  2 11  1  0  0  0  0
 11 12  1  0  0  0  0
  1 13  1  0  0  0  0
  1 14  1  0  0  0  0
  1 15  1  0  0  0  0
  3 16  1  0  0  0  0
  3 17  1  0  0  0  0
  3 18  1  0  0  0  0
  4 19  1  0  0  0  0
  9 20  1  0  0  0  0
 10 21  1  0  0  0  0
 10 22  1  0  0  0  0
 10 23  1  0  0  0  0
 12 24  1  0  0  0  0
 12 25  1  0  0  0  0
 12 26  1  0  0  0  0
M  END
