 xtb: 6.7.1 (edcfbbe)
          04112516153D

 26 25  0     0  0            999 V2000
    1.2608   -0.4669   -1.6879 C   0  0  0  0  0  0  0  0  0  0  0  0
    1.8883   -0.6445   -0.3169 C   0  0  0  0  0  0  0  0  0  0  0  0
    2.9953   -1.6954   -0.3586 C   0  0  0  0  0  0  0  0  0  0  0  0
    0.9731   -0.9132    0.8291 C   0  0  0  0  0  0  0  0  0  0  0  0
   -0.2673   -0.7662    1.0165 N   0  0  0  0  0  0  0  0  0  0  0  0
   -1.0605   -0.3477   -0.0753 O   0  0  0  0  0  0  0  0  0  0  0  0
   -2.3733   -0.1092    0.2611 C   0  0  0  0  0  0  0  0  0  0  0  0
   -2.7995   -0.1249    1.3950 O   0  0  0  0  0  0  0  0  0  0  0  0
   -3.0635    0.1604   -0.8482 N   0  0  0  0  0  0  0  0  0  0  0  0
   -4.4757    0.4724   -0.8351 C   0  0  0  0  0  0  0  0  0  0  0  0
    2.7315    0.9343    0.2381 S   0  0  0  0  0  0  0  0  0  0  0  0
    1.3861    2.1506    0.2602 C   0  0  0  0  0  0  0  0  0  0  0  0
    0.5367    0.3418   -1.6975 H   0  0  0  0  0  0  0  0  0  0  0  0
    2.0407   -0.2515   -2.4146 H   0  0  0  0  0  0  0  0  0  0  0  0
    0.7526   -1.3854   -1.9745 H   0  0  0  0  0  0  0  0  0  0  0  0
    3.7366   -1.4182   -1.1033 H   0  0  0  0  0  0  0  0  0  0  0  0
    2.5732   -2.6629   -0.6196 H   0  0  0  0  0  0  0  0  0  0  0  0
    3.4901   -1.7721    0.6062 H   0  0  0  0  0  0  0  0  0  0  0  0
    1.4688   -1.2392    1.7358 H   0  0  0  0  0  0  0  0  0  0  0  0
   -2.5865    0.1234   -1.7360 H   0  0  0  0  0  0  0  0  0  0  0  0
   -4.6444    1.4630   -1.2551 H   0  0  0  0  0  0  0  0  0  0  0  0
   -4.8118    0.4537    0.1994 H   0  0  0  0  0  0  0  0  0  0  0  0
   -5.0293   -0.2683   -1.4104 H   0  0  0  0  0  0  0  0  0  0  0  0
    1.0915    2.3998   -0.7542 H   0  0  0  0  0  0  0  0  0  0  0  0
    1.7932    3.0260    0.7548 H   0  0  0  0  0  0  0  0  0  0  0  0
    0.5469    1.7639    0.8314 H   0  0  0  0  0  0  0  0  0  0  0  0
  1  2  1  0  0  0  0
  2  3  1  0  0  0  0
  2  4  1  0  0  0  0
  4  5  2  0  0  0  0
  5  6  1  0  0  0  0
  6  7  1  0  0  0  0
  7  8  2  0  0  0  0
  7  9  4  0  0  0  0
  9 10  1  0  0  0  0
  2 11  1  0  0  0  0
 11 12  1  0  0  0  0
  1 13  1  0  0  0  0
  1 14  1  0  0  0  0
  1 15  1  0  0  0  0
  3 16  1  0  0  0  0
  3 17  1  0  0  0  0
  3 18  1  0  0  0  0
  4 19  1  0  0  0  0
  9 20  1  0  0  0  0
 10 21  1  0  0  0  0
 10 22  1  0  0  0  0
 10 23  1  0  0  0  0
 12 24  1  0  0  0  0
 12 25  1  0  0  0  0
 12 26  1  0  0  0  0
M  END
