 xtb: 6.7.1 (edcfbbe)
          04112516153D

 26 25  0     0  0            999 V2000
    0.7162   -0.2911   -1.5675 C   0  0  0  0  0  0  0  0  0  0  0  0
    1.5004   -0.3788   -0.2650 C   0  0  0  0  0  0  0  0  0  0  0  0
    2.9088   -0.9189   -0.5084 C   0  0  0  0  0  0  0  0  0  0  0  0
    0.8924   -1.2055    0.8265 C   0  0  0  0  0  0  0  0  0  0  0  0
   -0.2422   -1.7072    1.0466 N   0  0  0  0  0  0  0  0  0  0  0  0
   -1.3008   -1.5060    0.1223 O   0  0  0  0  0  0  0  0  0  0  0  0
   -1.9638   -0.3152    0.2043 C   0  0  0  0  0  0  0  0  0  0  0  0
   -1.5910    0.6204    0.8855 O   0  0  0  0  0  0  0  0  0  0  0  0
   -3.0404   -0.3529   -0.5824 N   0  0  0  0  0  0  0  0  0  0  0  0
   -3.9560    0.7588   -0.7133 C   0  0  0  0  0  0  0  0  0  0  0  0
    1.5663    1.3082    0.5502 S   0  0  0  0  0  0  0  0  0  0  0  0
    2.8626    2.1490   -0.4209 C   0  0  0  0  0  0  0  0  0  0  0  0
    1.3296    0.1740   -2.3356 H   0  0  0  0  0  0  0  0  0  0  0  0
    0.4328   -1.2870   -1.9032 H   0  0  0  0  0  0  0  0  0  0  0  0
   -0.1820    0.3097   -1.4419 H   0  0  0  0  0  0  0  0  0  0  0  0
    3.5107   -0.8479    0.3940 H   0  0  0  0  0  0  0  0  0  0  0  0
    3.3965   -0.3684   -1.3071 H   0  0  0  0  0  0  0  0  0  0  0  0
    2.8414   -1.9643   -0.8033 H   0  0  0  0  0  0  0  0  0  0  0  0
    1.5816   -1.4485    1.6284 H   0  0  0  0  0  0  0  0  0  0  0  0
   -3.2435   -1.2137   -1.0676 H   0  0  0  0  0  0  0  0  0  0  0  0
   -3.5710    1.5807   -0.1129 H   0  0  0  0  0  0  0  0  0  0  0  0
   -4.9445    0.4788   -0.3516 H   0  0  0  0  0  0  0  0  0  0  0  0
   -4.0209    1.0672   -1.7558 H   0  0  0  0  0  0  0  0  0  0  0  0
    2.6188    2.1081   -1.4765 H   0  0  0  0  0  0  0  0  0  0  0  0
    3.8322    1.7121   -0.2127 H   0  0  0  0  0  0  0  0  0  0  0  0
    2.8368    3.1771   -0.0762 H   0  0  0  0  0  0  0  0  0  0  0  0
  1  2  1  0  0  0  0
  2  3  1  0  0  0  0
  2  4  1  0  0  0  0
  4  5  2  0  0  0  0
  5  6  1  0  0  0  0
  6  7  1  0  0  0  0
  7  8  2  0  0  0  0
  7  9  4  0  0  0  0
  9 10  1  0  0  0  0
  2 11  1  0  0  0  0
 11 12  1  0  0  0  0
  1 13  1  0  0  0  0
  1 14  1  0  0  0  0
  1 15  1  0  0  0  0
  3 16  1  0  0  0  0
  3 17  1  0  0  0  0
  3 18  1  0  0  0  0
  4 19  1  0  0  0  0
  9 20  1  0  0  0  0
 10 21  1  0  0  0  0
 10 22  1  0  0  0  0
 10 23  1  0  0  0  0
 12 24  1  0  0  0  0
 12 25  1  0  0  0  0
 12 26  1  0  0  0  0
M  END
