 xtb: 6.7.1 (edcfbbe)
          04112516013D

 20 19  0     0  0            999 V2000
   -3.3670   -0.0975   -0.8515 C   0  0  0  0  0  0  0  0  0  0  0  0
   -2.8525    0.3722    0.5047 C   0  0  0  0  0  0  0  0  0  0  0  0
   -1.5014   -0.2368    0.8785 C   0  0  0  0  0  0  0  0  0  0  0  0
   -0.3758    0.2352   -0.0311 C   0  0  0  0  0  0  0  0  0  0  0  0
    0.8635   -0.2405    0.5142 O   0  0  0  0  0  0  0  0  0  0  0  0
    1.9709   -0.0259   -0.1855 C   0  0  0  0  0  0  0  0  0  0  0  0
    1.9751    0.5389   -1.2610 O   0  0  0  0  0  0  0  0  0  0  0  0
    3.1852   -0.5477    0.5206 C   0  0  0  0  0  0  0  0  0  0  0  0
   -2.7181    0.2414   -1.6546 H   0  0  0  0  0  0  0  0  0  0  0  0
   -3.4191   -1.1831   -0.8836 H   0  0  0  0  0  0  0  0  0  0  0  0
   -4.3630    0.2989   -1.0314 H   0  0  0  0  0  0  0  0  0  0  0  0
   -2.7698    1.4607    0.5050 H   0  0  0  0  0  0  0  0  0  0  0  0
   -3.5751    0.0929    1.2729 H   0  0  0  0  0  0  0  0  0  0  0  0
   -1.2446    0.0460    1.9005 H   0  0  0  0  0  0  0  0  0  0  0  0
   -1.5583   -1.3252    0.8350 H   0  0  0  0  0  0  0  0  0  0  0  0
   -0.4747   -0.1505   -1.0503 H   0  0  0  0  0  0  0  0  0  0  0  0
   -0.3367    1.3289   -0.0823 H   0  0  0  0  0  0  0  0  0  0  0  0
    3.6179    0.2644    1.1015 H   0  0  0  0  0  0  0  0  0  0  0  0
    3.9183   -0.8769   -0.2090 H   0  0  0  0  0  0  0  0  0  0  0  0
    2.9049   -1.3523    1.1919 H   0  0  0  0  0  0  0  0  0  0  0  0
  1  2  1  0  0  0  0
  2  3  1  0  0  0  0
  3  4  1  0  0  0  0
  4  5  1  0  0  0  0
  5  6  1  0  0  0  0
  6  7  2  0  0  0  0
  6  8  1  0  0  0  0
  1  9  1  0  0  0  0
  1 10  1  0  0  0  0
  1 11  1  0  0  0  0
  2 12  1  0  0  0  0
  2 13  1  0  0  0  0
  3 14  1  0  0  0  0
  3 15  1  0  0  0  0
  4 16  1  0  0  0  0
  4 17  1  0  0  0  0
  8 18  1  0  0  0  0
  8 19  1  0  0  0  0
  8 20  1  0  0  0  0
M  END
