 xtb: 6.7.1 (edcfbbe)
          04112516593D

 20 19  0     0  0            999 V2000
   -3.3766   -0.1742   -0.8241 C   0  0  0  0  0  0  0  0  0  0  0  0
   -2.8489    0.4228    0.4760 C   0  0  0  0  0  0  0  0  0  0  0  0
   -1.5000   -0.1584    0.8990 C   0  0  0  0  0  0  0  0  0  0  0  0
   -0.3760    0.2210   -0.0548 C   0  0  0  0  0  0  0  0  0  0  0  0
    0.8615   -0.2294    0.5156 O   0  0  0  0  0  0  0  0  0  0  0  0
    1.9723   -0.0317   -0.1835 C   0  0  0  0  0  0  0  0  0  0  0  0
    1.9827    0.5172   -1.2672 O   0  0  0  0  0  0  0  0  0  0  0  0
    3.1791   -0.5735    0.5205 C   0  0  0  0  0  0  0  0  0  0  0  0
   -3.4371   -1.2571   -0.7485 H   0  0  0  0  0  0  0  0  0  0  0  0
   -4.3710    0.2107   -1.0355 H   0  0  0  0  0  0  0  0  0  0  0  0
   -2.7315    0.0788   -1.6612 H   0  0  0  0  0  0  0  0  0  0  0  0
   -2.7573    1.5053    0.3682 H   0  0  0  0  0  0  0  0  0  0  0  0
   -3.5683    0.2272    1.2726 H   0  0  0  0  0  0  0  0  0  0  0  0
   -1.2373    0.2147    1.8900 H   0  0  0  0  0  0  0  0  0  0  0  0
   -1.5636   -1.2458    0.9551 H   0  0  0  0  0  0  0  0  0  0  0  0
   -0.4915   -0.2444   -1.0382 H   0  0  0  0  0  0  0  0  0  0  0  0
   -0.3203    1.3061   -0.1957 H   0  0  0  0  0  0  0  0  0  0  0  0
    2.9454   -0.7630    1.5623 H   0  0  0  0  0  0  0  0  0  0  0  0
    4.0012    0.1292    0.4227 H   0  0  0  0  0  0  0  0  0  0  0  0
    3.4710   -1.5034    0.0372 H   0  0  0  0  0  0  0  0  0  0  0  0
  1  2  1  0  0  0  0
  2  3  1  0  0  0  0
  3  4  1  0  0  0  0
  4  5  1  0  0  0  0
  5  6  1  0  0  0  0
  6  7  2  0  0  0  0
  6  8  1  0  0  0  0
  1  9  1  0  0  0  0
  1 10  1  0  0  0  0
  1 11  1  0  0  0  0
  2 12  1  0  0  0  0
  2 13  1  0  0  0  0
  3 14  1  0  0  0  0
  3 15  1  0  0  0  0
  4 16  1  0  0  0  0
  4 17  1  0  0  0  0
  8 18  1  0  0  0  0
  8 19  1  0  0  0  0
  8 20  1  0  0  0  0
M  END
