 xtb: 6.7.1 (edcfbbe)
          04112516113D

 17 16  0     0  0            999 V2000
   -4.2308   -0.9042    0.1855 C   0  0  0  0  0  0  0  0  0  0  0  0
   -2.9897   -0.4494   -0.5756 C   0  0  0  0  0  0  0  0  0  0  0  0
   -2.3234    0.7726    0.0810 C   0  0  0  0  0  0  0  0  0  0  0  0
   -0.9043    0.4944    0.5834 C   0  0  0  0  0  0  0  0  0  0  0  0
    0.0626    0.3631   -0.5772 C   0  0  0  0  0  0  0  0  0  0  0  0
    1.8881   -0.0399    0.0551 Br  0  0  0  0  0  0  0  0  0  0  0  0
   -4.9758   -0.1124    0.2094 H   0  0  0  0  0  0  0  0  0  0  0  0
   -3.9742   -1.1683    1.2088 H   0  0  0  0  0  0  0  0  0  0  0  0
   -4.6724   -1.7753   -0.2926 H   0  0  0  0  0  0  0  0  0  0  0  0
   -2.2847   -1.2817   -0.6144 H   0  0  0  0  0  0  0  0  0  0  0  0
   -3.2709   -0.2153   -1.6034 H   0  0  0  0  0  0  0  0  0  0  0  0
   -2.2901    1.6081   -0.6201 H   0  0  0  0  0  0  0  0  0  0  0  0
   -2.9241    1.0901    0.9339 H   0  0  0  0  0  0  0  0  0  0  0  0
   -0.5780    1.3135    1.2281 H   0  0  0  0  0  0  0  0  0  0  0  0
   -0.8972   -0.4219    1.1777 H   0  0  0  0  0  0  0  0  0  0  0  0
    0.1462    1.2904   -1.1410 H   0  0  0  0  0  0  0  0  0  0  0  0
   -0.2006   -0.4546   -1.2451 H   0  0  0  0  0  0  0  0  0  0  0  0
  1  2  1  0  0  0  0
  2  3  1  0  0  0  0
  3  4  1  0  0  0  0
  4  5  1  0  0  0  0
  5  6  1  0  0  0  0
  1  7  1  0  0  0  0
  1  8  1  0  0  0  0
  1  9  1  0  0  0  0
  2 10  1  0  0  0  0
  2 11  1  0  0  0  0
  3 12  1  0  0  0  0
  3 13  1  0  0  0  0
  4 14  1  0  0  0  0
  4 15  1  0  0  0  0
  5 16  1  0  0  0  0
  5 17  1  0  0  0  0
M  END
