 xtb: 6.7.1 (edcfbbe)
          04112516213D

 19 18  0     0  0            999 V2000
    2.8191    1.0128   -0.2017 C   0  0  0  0  0  0  0  0  0  0  0  0
    2.2949   -0.3610    0.2009 C   0  0  0  0  0  0  0  0  0  0  0  0
    0.8158   -0.3508    0.5873 C   0  0  0  0  0  0  0  0  0  0  0  0
   -0.1044   -0.0295   -0.6015 C   0  0  0  0  0  0  0  0  0  0  0  0
   -1.5391   -0.1736   -0.1612 C   0  0  0  0  0  0  0  0  0  0  0  0
   -2.1301   -1.2349   -0.2282 O   0  0  0  0  0  0  0  0  0  0  0  0
   -2.1713    1.0704    0.3854 C   0  0  0  0  0  0  0  0  0  0  0  0
    3.8915    0.9674   -0.3737 H   0  0  0  0  0  0  0  0  0  0  0  0
    2.3462    1.3601   -1.1161 H   0  0  0  0  0  0  0  0  0  0  0  0
    2.6294    1.7382    0.5861 H   0  0  0  0  0  0  0  0  0  0  0  0
    2.8665   -0.7207    1.0591 H   0  0  0  0  0  0  0  0  0  0  0  0
    2.4502   -1.0659   -0.6182 H   0  0  0  0  0  0  0  0  0  0  0  0
    0.6567    0.3821    1.3806 H   0  0  0  0  0  0  0  0  0  0  0  0
    0.5423   -1.3334    0.9792 H   0  0  0  0  0  0  0  0  0  0  0  0
    0.0800    0.9839   -0.9515 H   0  0  0  0  0  0  0  0  0  0  0  0
    0.0958   -0.7434   -1.4020 H   0  0  0  0  0  0  0  0  0  0  0  0
   -2.3543    1.7542   -0.4413 H   0  0  0  0  0  0  0  0  0  0  0  0
   -3.1150    0.8386    0.8710 H   0  0  0  0  0  0  0  0  0  0  0  0
   -1.4956    1.5595    1.0811 H   0  0  0  0  0  0  0  0  0  0  0  0
  1  2  1  0  0  0  0
  2  3  1  0  0  0  0
  3  4  1  0  0  0  0
  4  5  1  0  0  0  0
  5  6  2  0  0  0  0
  5  7  1  0  0  0  0
  1  8  1  0  0  0  0
  1  9  1  0  0  0  0
  1 10  1  0  0  0  0
  2 11  1  0  0  0  0
  2 12  1  0  0  0  0
  3 13  1  0  0  0  0
  3 14  1  0  0  0  0
  4 15  1  0  0  0  0
  4 16  1  0  0  0  0
  7 17  1  0  0  0  0
  7 18  1  0  0  0  0
  7 19  1  0  0  0  0
M  END
