 xtb: 6.7.1 (edcfbbe)
          04112514083D

 16 15  0     0  0            999 V2000
   -1.8191   -1.2435   -0.2081 C   0  0  0  0  0  0  0  0  0  0  0  0
   -1.8320    0.1652   -0.0815 O   0  0  0  0  0  0  0  0  0  0  0  0
   -0.6695    0.7149    0.5047 C   0  0  0  0  0  0  0  0  0  0  0  0
    0.5118    0.8486   -0.4827 C   0  0  0  0  0  0  0  0  0  0  0  0
    1.7627    0.5265    0.0909 O   0  0  0  0  0  0  0  0  0  0  0  0
    2.0309   -0.8595    0.1787 C   0  0  0  0  0  0  0  0  0  0  0  0
   -2.7736   -1.5104   -0.6541 H   0  0  0  0  0  0  0  0  0  0  0  0
   -1.7246   -1.7188    0.7745 H   0  0  0  0  0  0  0  0  0  0  0  0
   -1.0056   -1.5878   -0.8534 H   0  0  0  0  0  0  0  0  0  0  0  0
   -0.9709    1.6977    0.8698 H   0  0  0  0  0  0  0  0  0  0  0  0
   -0.3560    0.1085    1.3649 H   0  0  0  0  0  0  0  0  0  0  0  0
    0.6085    1.8818   -0.8187 H   0  0  0  0  0  0  0  0  0  0  0  0
    0.3233    0.2166   -1.3608 H   0  0  0  0  0  0  0  0  0  0  0  0
    1.3039   -1.3761    0.8121 H   0  0  0  0  0  0  0  0  0  0  0  0
    3.0205   -0.9436    0.6201 H   0  0  0  0  0  0  0  0  0  0  0  0
    2.0299   -1.3171   -0.8166 H   0  0  0  0  0  0  0  0  0  0  0  0
  1  2  1  0  0  0  0
  2  3  1  0  0  0  0
  3  4  1  0  0  0  0
  4  5  1  0  0  0  0
  5  6  1  0  0  0  0
  1  7  1  0  0  0  0
  1  8  1  0  0  0  0
  1  9  1  0  0  0  0
  3 10  1  0  0  0  0
  3 11  1  0  0  0  0
  4 12  1  0  0  0  0
  4 13  1  0  0  0  0
  6 14  1  0  0  0  0
  6 15  1  0  0  0  0
  6 16  1  0  0  0  0
M  END
