 xtb: 6.7.1 (edcfbbe)
          04112516273D

 20 19  0     0  0            999 V2000
    3.9631    0.3101    0.1191 C   0  0  0  0  0  0  0  0  0  0  0  0
    2.6134    0.0503   -0.4691 C   0  0  0  0  0  0  0  0  0  0  0  0
    2.3144    0.1879   -1.6352 O   0  0  0  0  0  0  0  0  0  0  0  0
    1.7450   -0.3613    0.4612 O   0  0  0  0  0  0  0  0  0  0  0  0
    0.4097   -0.6426    0.0557 C   0  0  0  0  0  0  0  0  0  0  0  0
   -0.4107    0.6479   -0.0534 C   0  0  0  0  0  0  0  0  0  0  0  0
   -1.7458    0.3669   -0.4598 O   0  0  0  0  0  0  0  0  0  0  0  0
   -2.6138   -0.0485    0.4691 C   0  0  0  0  0  0  0  0  0  0  0  0
   -2.3152   -0.1879    1.6351 O   0  0  0  0  0  0  0  0  0  0  0  0
   -3.9623   -0.3107   -0.1207 C   0  0  0  0  0  0  0  0  0  0  0  0
    4.7273   -0.1061   -0.5307 H   0  0  0  0  0  0  0  0  0  0  0  0
    4.0206   -0.1140    1.1153 H   0  0  0  0  0  0  0  0  0  0  0  0
    4.1161    1.3860    0.1698 H   0  0  0  0  0  0  0  0  0  0  0  0
    0.4170   -1.1540   -0.9125 H   0  0  0  0  0  0  0  0  0  0  0  0
   -0.0027   -1.2885    0.8326 H   0  0  0  0  0  0  0  0  0  0  0  0
    0.0022    1.2940   -0.8298 H   0  0  0  0  0  0  0  0  0  0  0  0
   -0.4185    1.1589    0.9150 H   0  0  0  0  0  0  0  0  0  0  0  0
   -4.0379    0.1590   -1.0951 H   0  0  0  0  0  0  0  0  0  0  0  0
   -4.7310    0.0534    0.5543 H   0  0  0  0  0  0  0  0  0  0  0  0
   -4.0881   -1.3862   -0.2258 H   0  0  0  0  0  0  0  0  0  0  0  0
  1  2  1  0  0  0  0
  2  3  2  0  0  0  0
  2  4  1  0  0  0  0
  4  5  1  0  0  0  0
  5  6  1  0  0  0  0
  6  7  1  0  0  0  0
  7  8  1  0  0  0  0
  8  9  2  0  0  0  0
  8 10  1  0  0  0  0
  1 11  1  0  0  0  0
  1 12  1  0  0  0  0
  1 13  1  0  0  0  0
  5 14  1  0  0  0  0
  5 15  1  0  0  0  0
  6 16  1  0  0  0  0
  6 17  1  0  0  0  0
 10 18  1  0  0  0  0
 10 19  1  0  0  0  0
 10 20  1  0  0  0  0
M  END
