 xtb: 6.7.1 (edcfbbe)
          04112516263D

 20 19  0     0  0            999 V2000
   -2.7538   -0.2996   -0.7834 C   0  0  0  0  0  0  0  0  0  0  0  0
   -1.8821   -0.7945    0.3656 C   0  0  0  0  0  0  0  0  0  0  0  0
   -1.2468    0.3390    1.1725 C   0  0  0  0  0  0  0  0  0  0  0  0
   -0.3129    1.2296    0.3414 C   0  0  0  0  0  0  0  0  0  0  0  0
    0.7833    0.4187   -0.2977 C   0  0  0  0  0  0  0  0  0  0  0  0
    0.9317    0.2695   -1.4933 O   0  0  0  0  0  0  0  0  0  0  0  0
    1.5867   -0.1185    0.6129 O   0  0  0  0  0  0  0  0  0  0  0  0
    2.6731   -0.9352    0.1706 C   0  0  0  0  0  0  0  0  0  0  0  0
   -2.1464    0.1669   -1.5552 H   0  0  0  0  0  0  0  0  0  0  0  0
   -3.2866   -1.1326   -1.2353 H   0  0  0  0  0  0  0  0  0  0  0  0
   -3.4834    0.4225   -0.4250 H   0  0  0  0  0  0  0  0  0  0  0  0
   -2.4911   -1.3960    1.0436 H   0  0  0  0  0  0  0  0  0  0  0  0
   -1.0974   -1.4414   -0.0352 H   0  0  0  0  0  0  0  0  0  0  0  0
   -0.6752   -0.0904    1.9969 H   0  0  0  0  0  0  0  0  0  0  0  0
   -2.0341    0.9669    1.5917 H   0  0  0  0  0  0  0  0  0  0  0  0
    0.1498    1.9662    0.9986 H   0  0  0  0  0  0  0  0  0  0  0  0
   -0.8622    1.7426   -0.4462 H   0  0  0  0  0  0  0  0  0  0  0  0
    2.3513   -1.9765    0.1414 H   0  0  0  0  0  0  0  0  0  0  0  0
    3.4697   -0.8034    0.8974 H   0  0  0  0  0  0  0  0  0  0  0  0
    2.9924   -0.6240   -0.8249 H   0  0  0  0  0  0  0  0  0  0  0  0
  1  2  1  0  0  0  0
  2  3  1  0  0  0  0
  3  4  1  0  0  0  0
  4  5  1  0  0  0  0
  5  6  2  0  0  0  0
  5  7  1  0  0  0  0
  7  8  1  0  0  0  0
  1  9  1  0  0  0  0
  1 10  1  0  0  0  0
  1 11  1  0  0  0  0
  2 12  1  0  0  0  0
  2 13  1  0  0  0  0
  3 14  1  0  0  0  0
  3 15  1  0  0  0  0
  4 16  1  0  0  0  0
  4 17  1  0  0  0  0
  8 18  1  0  0  0  0
  8 19  1  0  0  0  0
  8 20  1  0  0  0  0
M  END
