 xtb: 6.7.1 (edcfbbe)
          04112516263D

 20 19  0     0  0            999 V2000
   -3.7387   -0.6870   -0.2423 C   0  0  0  0  0  0  0  0  0  0  0  0
   -2.6610    0.1009    0.4930 C   0  0  0  0  0  0  0  0  0  0  0  0
   -1.2834   -0.1237   -0.1261 C   0  0  0  0  0  0  0  0  0  0  0  0
   -0.1984    0.6738    0.6117 C   0  0  0  0  0  0  0  0  0  0  0  0
    1.1247    0.4660   -0.0730 C   0  0  0  0  0  0  0  0  0  0  0  0
    1.4628    0.9948   -1.1116 O   0  0  0  0  0  0  0  0  0  0  0  0
    1.8878   -0.4023    0.5809 O   0  0  0  0  0  0  0  0  0  0  0  0
    3.1627   -0.7224    0.0170 C   0  0  0  0  0  0  0  0  0  0  0  0
   -4.7113   -0.5142    0.2109 H   0  0  0  0  0  0  0  0  0  0  0  0
   -3.7863   -0.3843   -1.2857 H   0  0  0  0  0  0  0  0  0  0  0  0
   -3.5254   -1.7526   -0.2046 H   0  0  0  0  0  0  0  0  0  0  0  0
   -2.9020    1.1649    0.4586 H   0  0  0  0  0  0  0  0  0  0  0  0
   -2.6387   -0.2035    1.5409 H   0  0  0  0  0  0  0  0  0  0  0  0
   -1.2955    0.1829   -1.1744 H   0  0  0  0  0  0  0  0  0  0  0  0
   -1.0358   -1.1867   -0.0893 H   0  0  0  0  0  0  0  0  0  0  0  0
   -0.1213    0.3394    1.6451 H   0  0  0  0  0  0  0  0  0  0  0  0
   -0.4447    1.7351    0.5766 H   0  0  0  0  0  0  0  0  0  0  0  0
    3.7287    0.1916   -0.1664 H   0  0  0  0  0  0  0  0  0  0  0  0
    3.0291   -1.2522   -0.9267 H   0  0  0  0  0  0  0  0  0  0  0  0
    3.6585   -1.3506    0.7500 H   0  0  0  0  0  0  0  0  0  0  0  0
  1  2  1  0  0  0  0
  2  3  1  0  0  0  0
  3  4  1  0  0  0  0
  4  5  1  0  0  0  0
  5  6  2  0  0  0  0
  5  7  1  0  0  0  0
  7  8  1  0  0  0  0
  1  9  1  0  0  0  0
  1 10  1  0  0  0  0
  1 11  1  0  0  0  0
  2 12  1  0  0  0  0
  2 13  1  0  0  0  0
  3 14  1  0  0  0  0
  3 15  1  0  0  0  0
  4 16  1  0  0  0  0
  4 17  1  0  0  0  0
  8 18  1  0  0  0  0
  8 19  1  0  0  0  0
  8 20  1  0  0  0  0
M  END
