 xtb: 6.7.1 (edcfbbe)
          04112516153D

 26 25  0     0  0            999 V2000
    2.7993   -1.4315   -1.1997 C   0  0  0  0  0  0  0  0  0  0  0  0
    1.8492   -0.5846   -0.3549 C   0  0  0  0  0  0  0  0  0  0  0  0
    1.3214   -1.3787    0.8266 C   0  0  0  0  0  0  0  0  0  0  0  0
    0.8475    0.0776   -1.2401 C   0  0  0  0  0  0  0  0  0  0  0  0
   -0.3938    0.2931   -1.1592 N   0  0  0  0  0  0  0  0  0  0  0  0
   -1.0919   -0.2394   -0.0541 O   0  0  0  0  0  0  0  0  0  0  0  0
   -2.4459    0.0075   -0.0899 C   0  0  0  0  0  0  0  0  0  0  0  0
   -2.9937    0.6843   -0.9316 O   0  0  0  0  0  0  0  0  0  0  0  0
   -3.0248   -0.6053    0.9440 N   0  0  0  0  0  0  0  0  0  0  0  0
   -4.4496   -0.5532    1.1871 C   0  0  0  0  0  0  0  0  0  0  0  0
    2.8743    0.8662    0.2364 S   0  0  0  0  0  0  0  0  0  0  0  0
    1.7038    1.8137    1.2494 C   0  0  0  0  0  0  0  0  0  0  0  0
    3.2317   -0.8398   -2.0025 H   0  0  0  0  0  0  0  0  0  0  0  0
    3.6061   -1.8085   -0.5770 H   0  0  0  0  0  0  0  0  0  0  0  0
    2.2585   -2.2715   -1.6294 H   0  0  0  0  0  0  0  0  0  0  0  0
    0.6983   -0.7682    1.4732 H   0  0  0  0  0  0  0  0  0  0  0  0
    2.1595   -1.7630    1.4036 H   0  0  0  0  0  0  0  0  0  0  0  0
    0.7266   -2.2152    0.4656 H   0  0  0  0  0  0  0  0  0  0  0  0
    1.2673    0.5343   -2.1287 H   0  0  0  0  0  0  0  0  0  0  0  0
   -2.4500   -1.1537    1.5652 H   0  0  0  0  0  0  0  0  0  0  0  0
   -4.8962    0.0754    0.4196 H   0  0  0  0  0  0  0  0  0  0  0  0
   -4.6466   -0.1254    2.1689 H   0  0  0  0  0  0  0  0  0  0  0  0
   -4.8772   -1.5534    1.1311 H   0  0  0  0  0  0  0  0  0  0  0  0
    2.1657    2.7833    1.4021 H   0  0  0  0  0  0  0  0  0  0  0  0
    1.5532    1.3189    2.2036 H   0  0  0  0  0  0  0  0  0  0  0  0
    0.7667    1.9324    0.7135 H   0  0  0  0  0  0  0  0  0  0  0  0
  1  2  1  0  0  0  0
  2  3  1  0  0  0  0
  2  4  1  0  0  0  0
  4  5  2  0  0  0  0
  5  6  1  0  0  0  0
  6  7  1  0  0  0  0
  7  8  2  0  0  0  0
  7  9  4  0  0  0  0
  9 10  1  0  0  0  0
  2 11  1  0  0  0  0
 11 12  1  0  0  0  0
  1 13  1  0  0  0  0
  1 14  1  0  0  0  0
  1 15  1  0  0  0  0
  3 16  1  0  0  0  0
  3 17  1  0  0  0  0
  3 18  1  0  0  0  0
  4 19  1  0  0  0  0
  9 20  1  0  0  0  0
 10 21  1  0  0  0  0
 10 22  1  0  0  0  0
 10 23  1  0  0  0  0
 12 24  1  0  0  0  0
 12 25  1  0  0  0  0
 12 26  1  0  0  0  0
M  END
