 xtb: 6.7.1 (edcfbbe)
          04112514243D

 14 13  0     0  0            999 V2000
    0.7086    0.8300    0.2912 C   0  0  0  0  0  0  0  0  0  0  0  0
   -0.7085    0.8294   -0.2925 C   0  0  0  0  0  0  0  0  0  0  0  0
   -1.5465   -0.3244    0.2339 C   0  0  0  0  0  0  0  0  0  0  0  0
   -3.2325   -0.1983   -0.3855 Cl  0  0  0  0  0  0  0  0  0  0  0  0
    1.5462   -0.3252   -0.2327 C   0  0  0  0  0  0  0  0  0  0  0  0
    3.2326   -0.1978    0.3856 Cl  0  0  0  0  0  0  0  0  0  0  0  0
    0.6602    0.7814    1.3795 H   0  0  0  0  0  0  0  0  0  0  0  0
    1.1952    1.7667    0.0173 H   0  0  0  0  0  0  0  0  0  0  0  0
   -0.6601    0.7774   -1.3806 H   0  0  0  0  0  0  0  0  0  0  0  0
   -1.1947    1.7672   -0.0216 H   0  0  0  0  0  0  0  0  0  0  0  0
   -1.1781   -1.2903   -0.1030 H   0  0  0  0  0  0  0  0  0  0  0  0
   -1.6191   -0.3040    1.3197 H   0  0  0  0  0  0  0  0  0  0  0  0
    1.1778   -1.2899    0.1077 H   0  0  0  0  0  0  0  0  0  0  0  0
    1.6182   -0.3083   -1.3187 H   0  0  0  0  0  0  0  0  0  0  0  0
  1  2  1  0  0  0  0
  2  3  1  0  0  0  0
  3  4  1  0  0  0  0
  1  5  1  0  0  0  0
  5  6  1  0  0  0  0
  1  7  1  0  0  0  0
  1  8  1  0  0  0  0
  2  9  1  0  0  0  0
  2 10  1  0  0  0  0
  3 11  1  0  0  0  0
  3 12  1  0  0  0  0
  5 13  1  0  0  0  0
  5 14  1  0  0  0  0
M  END
