 xtb: 6.7.1 (edcfbbe)
          04112514153D

 17 16  0     0  0            999 V2000
    2.5844   -1.3139    0.2259 C   0  0  0  0  0  0  0  0  0  0  0  0
    2.3180    0.0083   -0.4831 C   0  0  0  0  0  0  0  0  0  0  0  0
    1.3116    0.9039    0.2609 C   0  0  0  0  0  0  0  0  0  0  0  0
   -0.0523    0.3257    0.2652 C   0  0  0  0  0  0  0  0  0  0  0  0
   -1.1309    0.8914   -0.2936 C   0  0  0  0  0  0  0  0  0  0  0  0
   -2.4301    0.2511   -0.2582 C   0  0  0  0  0  0  0  0  0  0  0  0
   -2.6823   -0.8209    0.2627 O   0  0  0  0  0  0  0  0  0  0  0  0
    2.9184   -1.1408    1.2464 H   0  0  0  0  0  0  0  0  0  0  0  0
    1.6918   -1.9331    0.2543 H   0  0  0  0  0  0  0  0  0  0  0  0
    3.3599   -1.8672   -0.2981 H   0  0  0  0  0  0  0  0  0  0  0  0
    1.9459   -0.1839   -1.4911 H   0  0  0  0  0  0  0  0  0  0  0  0
    3.2553    0.5598   -0.5720 H   0  0  0  0  0  0  0  0  0  0  0  0
    1.2942    1.8900   -0.2048 H   0  0  0  0  0  0  0  0  0  0  0  0
    1.6483    1.0097    1.2952 H   0  0  0  0  0  0  0  0  0  0  0  0
   -0.1824   -0.6342    0.7489 H   0  0  0  0  0  0  0  0  0  0  0  0
   -1.0726    1.8473   -0.7918 H   0  0  0  0  0  0  0  0  0  0  0  0
   -3.2377    0.8148   -0.7603 H   0  0  0  0  0  0  0  0  0  0  0  0
  1  2  1  0  0  0  0
  2  3  1  0  0  0  0
  3  4  1  0  0  0  0
  4  5  2  0  0  0  0
  5  6  1  0  0  0  0
  6  7  2  0  0  0  0
  1  8  1  0  0  0  0
  1  9  1  0  0  0  0
  1 10  1  0  0  0  0
  2 11  1  0  0  0  0
  2 12  1  0  0  0  0
  3 13  1  0  0  0  0
  3 14  1  0  0  0  0
  4 15  1  0  0  0  0
  5 16  1  0  0  0  0
  6 17  1  0  0  0  0
M  END
