 xtb: 6.7.1 (edcfbbe)
          04112514083D

 16 15  0     0  0            999 V2000
   -2.1881   -0.9800    0.3274 C   0  0  0  0  0  0  0  0  0  0  0  0
   -1.5906   -0.0465   -0.5509 O   0  0  0  0  0  0  0  0  0  0  0  0
   -0.8056    0.9428    0.0753 C   0  0  0  0  0  0  0  0  0  0  0  0
    0.5371    0.4496    0.6211 C   0  0  0  0  0  0  0  0  0  0  0  0
    1.3737    0.0940   -0.4601 O   0  0  0  0  0  0  0  0  0  0  0  0
    2.6401   -0.3728   -0.0485 C   0  0  0  0  0  0  0  0  0  0  0  0
   -2.8704   -1.5656   -0.2839 H   0  0  0  0  0  0  0  0  0  0  0  0
   -2.7455   -0.4661    1.1180 H   0  0  0  0  0  0  0  0  0  0  0  0
   -1.4478   -1.6455    0.7801 H   0  0  0  0  0  0  0  0  0  0  0  0
   -0.6129    1.6810   -0.7054 H   0  0  0  0  0  0  0  0  0  0  0  0
   -1.3694    1.4071    0.8967 H   0  0  0  0  0  0  0  0  0  0  0  0
    0.3956   -0.4147    1.2859 H   0  0  0  0  0  0  0  0  0  0  0  0
    0.9992    1.2605    1.2033 H   0  0  0  0  0  0  0  0  0  0  0  0
    2.5457   -1.2728    0.5695 H   0  0  0  0  0  0  0  0  0  0  0  0
    3.1735    0.3971    0.5201 H   0  0  0  0  0  0  0  0  0  0  0  0
    3.1873   -0.6065   -0.9578 H   0  0  0  0  0  0  0  0  0  0  0  0
  1  2  1  0  0  0  0
  2  3  1  0  0  0  0
  3  4  1  0  0  0  0
  4  5  1  0  0  0  0
  5  6  1  0  0  0  0
  1  7  1  0  0  0  0
  1  8  1  0  0  0  0
  1  9  1  0  0  0  0
  3 10  1  0  0  0  0
  3 11  1  0  0  0  0
  4 12  1  0  0  0  0
  4 13  1  0  0  0  0
  6 14  1  0  0  0  0
  6 15  1  0  0  0  0
  6 16  1  0  0  0  0
M  END
