 xtb: 6.7.1 (edcfbbe)
          04112516013D

 20 19  0     0  0            999 V2000
   -3.5226    0.1217    0.4857 C   0  0  0  0  0  0  0  0  0  0  0  0
   -2.5888    0.1521   -0.7193 C   0  0  0  0  0  0  0  0  0  0  0  0
   -1.2222   -0.4725   -0.4390 C   0  0  0  0  0  0  0  0  0  0  0  0
   -0.3996    0.3407    0.5572 C   0  0  0  0  0  0  0  0  0  0  0  0
    0.8799   -0.2676    0.7816 O   0  0  0  0  0  0  0  0  0  0  0  0
    1.8781    0.0261   -0.0448 C   0  0  0  0  0  0  0  0  0  0  0  0
    1.7774    0.8107   -0.9658 O   0  0  0  0  0  0  0  0  0  0  0  0
    3.1239   -0.7299    0.3065 C   0  0  0  0  0  0  0  0  0  0  0  0
   -4.5072    0.4841    0.2018 H   0  0  0  0  0  0  0  0  0  0  0  0
   -3.6257   -0.8936    0.8607 H   0  0  0  0  0  0  0  0  0  0  0  0
   -3.1489    0.7520    1.2875 H   0  0  0  0  0  0  0  0  0  0  0  0
   -3.0505   -0.4007   -1.5392 H   0  0  0  0  0  0  0  0  0  0  0  0
   -2.4505    1.1830   -1.0513 H   0  0  0  0  0  0  0  0  0  0  0  0
   -1.3470   -1.4849   -0.0502 H   0  0  0  0  0  0  0  0  0  0  0  0
   -0.6572   -0.5333   -1.3727 H   0  0  0  0  0  0  0  0  0  0  0  0
   -0.2466    1.3579    0.1824 H   0  0  0  0  0  0  0  0  0  0  0  0
   -0.8681    0.3644    1.5406 H   0  0  0  0  0  0  0  0  0  0  0  0
    3.0598   -1.0966    1.3250 H   0  0  0  0  0  0  0  0  0  0  0  0
    3.9887   -0.0876    0.1717 H   0  0  0  0  0  0  0  0  0  0  0  0
    3.2171   -1.5724   -0.3755 H   0  0  0  0  0  0  0  0  0  0  0  0
  1  2  1  0  0  0  0
  2  3  1  0  0  0  0
  3  4  1  0  0  0  0
  4  5  1  0  0  0  0
  5  6  1  0  0  0  0
  6  7  2  0  0  0  0
  6  8  1  0  0  0  0
  1  9  1  0  0  0  0
  1 10  1  0  0  0  0
  1 11  1  0  0  0  0
  2 12  1  0  0  0  0
  2 13  1  0  0  0  0
  3 14  1  0  0  0  0
  3 15  1  0  0  0  0
  4 16  1  0  0  0  0
  4 17  1  0  0  0  0
  8 18  1  0  0  0  0
  8 19  1  0  0  0  0
  8 20  1  0  0  0  0
M  END
