 xtb: 6.7.1 (edcfbbe)
          04112517153D

 20 19  0     0  0            999 V2000
   -3.9364    0.2708   -0.0512 C   0  0  0  0  0  0  0  0  0  0  0  0
   -2.6911   -0.5521    0.2561 C   0  0  0  0  0  0  0  0  0  0  0  0
   -1.4143    0.2424   -0.0063 C   0  0  0  0  0  0  0  0  0  0  0  0
   -0.1642   -0.5744    0.3072 C   0  0  0  0  0  0  0  0  0  0  0  0
    1.1022    0.1883    0.0236 C   0  0  0  0  0  0  0  0  0  0  0  0
    1.1700    1.2753   -0.5081 O   0  0  0  0  0  0  0  0  0  0  0  0
    2.1751   -0.4875    0.4308 O   0  0  0  0  0  0  0  0  0  0  0  0
    3.4545    0.1142    0.2144 C   0  0  0  0  0  0  0  0  0  0  0  0
   -3.9398    0.5805   -1.0937 H   0  0  0  0  0  0  0  0  0  0  0  0
   -4.8349   -0.3105    0.1389 H   0  0  0  0  0  0  0  0  0  0  0  0
   -3.9653    1.1634    0.5693 H   0  0  0  0  0  0  0  0  0  0  0  0
   -2.7126   -0.8652    1.3018 H   0  0  0  0  0  0  0  0  0  0  0  0
   -2.6897   -1.4520   -0.3619 H   0  0  0  0  0  0  0  0  0  0  0  0
   -1.4115    1.1489    0.6024 H   0  0  0  0  0  0  0  0  0  0  0  0
   -1.3810    0.5574   -1.0511 H   0  0  0  0  0  0  0  0  0  0  0  0
   -0.1400   -1.4848   -0.2958 H   0  0  0  0  0  0  0  0  0  0  0  0
   -0.1459   -0.8800    1.3547 H   0  0  0  0  0  0  0  0  0  0  0  0
    3.6170    0.2717   -0.8524 H   0  0  0  0  0  0  0  0  0  0  0  0
    4.1783   -0.5847    0.6211 H   0  0  0  0  0  0  0  0  0  0  0  0
    3.5057    1.0757    0.7266 H   0  0  0  0  0  0  0  0  0  0  0  0
  1  2  1  0  0  0  0
  2  3  1  0  0  0  0
  3  4  1  0  0  0  0
  4  5  1  0  0  0  0
  5  6  2  0  0  0  0
  5  7  1  0  0  0  0
  7  8  1  0  0  0  0
  1  9  1  0  0  0  0
  1 10  1  0  0  0  0
  1 11  1  0  0  0  0
  2 12  1  0  0  0  0
  2 13  1  0  0  0  0
  3 14  1  0  0  0  0
  3 15  1  0  0  0  0
  4 16  1  0  0  0  0
  4 17  1  0  0  0  0
  8 18  1  0  0  0  0
  8 19  1  0  0  0  0
  8 20  1  0  0  0  0
M  END
