 xtb: 6.7.1 (edcfbbe)
          04112516133D

 13 12  0     0  0            999 V2000
    3.0966    0.2329   -0.3068 C   0  0  0  0  0  0  0  0  0  0  0  0
    1.8213   -0.1299    0.3798 C   0  0  0  0  0  0  0  0  0  0  0  0
    1.7426   -0.5150    1.5204 O   0  0  0  0  0  0  0  0  0  0  0  0
    0.5892    0.0473   -0.5039 C   0  0  0  0  0  0  0  0  0  0  0  0
   -0.5752   -0.2147    0.2728 O   0  0  0  0  0  0  0  0  0  0  0  0
   -1.7730    0.1022   -0.2904 N   0  0  0  0  0  0  0  0  0  0  0  0
   -1.7582    0.5661   -1.3876 O   0  0  0  0  0  0  0  0  0  0  0  0
   -2.7107   -0.1295    0.4023 O   0  0  0  0  0  0  0  0  0  0  0  0
    3.9381   -0.1883    0.2348 H   0  0  0  0  0  0  0  0  0  0  0  0
    3.0976   -0.1002   -1.3391 H   0  0  0  0  0  0  0  0  0  0  0  0
    3.1928    1.3172   -0.3012 H   0  0  0  0  0  0  0  0  0  0  0  0
    0.6378   -0.6544   -1.3437 H   0  0  0  0  0  0  0  0  0  0  0  0
    0.5547    1.0665   -0.9033 H   0  0  0  0  0  0  0  0  0  0  0  0
  1  2  1  0  0  0  0
  2  3  2  0  0  0  0
  2  4  1  0  0  0  0
  4  5  1  0  0  0  0
  5  6  1  0  0  0  0
  6  7  4  0  0  0  0
  6  8  4  0  0  0  0
  1  9  1  0  0  0  0
  1 10  1  0  0  0  0
  1 11  1  0  0  0  0
  4 12  1  0  0  0  0
  4 13  1  0  0  0  0
M  END
