 xtb: 6.7.1 (edcfbbe)
          04112514143D

 16 15  0     0  0            999 V2000
   -2.0200   -0.8651   -0.4409 C   0  0  0  0  0  0  0  0  0  0  0  0
   -1.3094   -0.2687    0.6269 O   0  0  0  0  0  0  0  0  0  0  0  0
   -0.6403    0.9291    0.2968 C   0  0  0  0  0  0  0  0  0  0  0  0
    0.4977    0.7642   -0.7282 C   0  0  0  0  0  0  0  0  0  0  0  0
    1.3600   -0.3240   -0.4761 O   0  0  0  0  0  0  0  0  0  0  0  0
    2.1123   -0.2209    0.7173 C   0  0  0  0  0  0  0  0  0  0  0  0
   -1.3394   -1.2894   -1.1839 H   0  0  0  0  0  0  0  0  0  0  0  0
   -2.6814   -0.1361   -0.9206 H   0  0  0  0  0  0  0  0  0  0  0  0
   -2.6112   -1.6611    0.0055 H   0  0  0  0  0  0  0  0  0  0  0  0
   -1.3505    1.6677   -0.1023 H   0  0  0  0  0  0  0  0  0  0  0  0
   -0.2469    1.2931    1.2479 H   0  0  0  0  0  0  0  0  0  0  0  0
    1.0659    1.7052   -0.7569 H   0  0  0  0  0  0  0  0  0  0  0  0
    0.0904    0.5653   -1.7214 H   0  0  0  0  0  0  0  0  0  0  0  0
    2.6305    0.7425    0.7661 H   0  0  0  0  0  0  0  0  0  0  0  0
    2.8391   -1.0288    0.6795 H   0  0  0  0  0  0  0  0  0  0  0  0
    1.4777   -0.3425    1.5993 H   0  0  0  0  0  0  0  0  0  0  0  0
  1  2  1  0  0  0  0
  2  3  1  0  0  0  0
  3  4  1  0  0  0  0
  4  5  1  0  0  0  0
  5  6  1  0  0  0  0
  1  7  1  0  0  0  0
  1  8  1  0  0  0  0
  1  9  1  0  0  0  0
  3 10  1  0  0  0  0
  3 11  1  0  0  0  0
  4 12  1  0  0  0  0
  4 13  1  0  0  0  0
  6 14  1  0  0  0  0
  6 15  1  0  0  0  0
  6 16  1  0  0  0  0
M  END
