 xtb: 6.7.1 (edcfbbe)
          04112516153D

 26 25  0     0  0            999 V2000
    3.2638   -0.3871   -1.0148 C   0  0  0  0  0  0  0  0  0  0  0  0
    1.8817   -0.4424   -0.3786 C   0  0  0  0  0  0  0  0  0  0  0  0
    1.8174   -1.4869    0.7353 C   0  0  0  0  0  0  0  0  0  0  0  0
    0.8509   -0.7509   -1.4269 C   0  0  0  0  0  0  0  0  0  0  0  0
   -0.4078   -0.7478   -1.3596 N   0  0  0  0  0  0  0  0  0  0  0  0
   -0.9585   -0.3735   -0.1214 O   0  0  0  0  0  0  0  0  0  0  0  0
   -2.3329   -0.2882   -0.1137 C   0  0  0  0  0  0  0  0  0  0  0  0
   -3.0394   -0.5740   -1.0549 O   0  0  0  0  0  0  0  0  0  0  0  0
   -2.7293    0.1335    1.0873 N   0  0  0  0  0  0  0  0  0  0  0  0
   -4.1195    0.3467    1.4234 C   0  0  0  0  0  0  0  0  0  0  0  0
    1.4038    1.2294    0.3099 S   0  0  0  0  0  0  0  0  0  0  0  0
    2.9083    1.7314    1.2035 C   0  0  0  0  0  0  0  0  0  0  0  0
    4.0326   -0.2527   -0.2593 H   0  0  0  0  0  0  0  0  0  0  0  0
    3.4587   -1.3228   -1.5346 H   0  0  0  0  0  0  0  0  0  0  0  0
    3.3214    0.4293   -1.7315 H   0  0  0  0  0  0  0  0  0  0  0  0
    2.0552   -2.4687    0.3307 H   0  0  0  0  0  0  0  0  0  0  0  0
    0.8208   -1.5172    1.1685 H   0  0  0  0  0  0  0  0  0  0  0  0
    2.5338   -1.2492    1.5174 H   0  0  0  0  0  0  0  0  0  0  0  0
    1.2070   -1.0354   -2.4076 H   0  0  0  0  0  0  0  0  0  0  0  0
   -2.0232    0.3810    1.7641 H   0  0  0  0  0  0  0  0  0  0  0  0
   -4.3014    1.4005    1.6305 H   0  0  0  0  0  0  0  0  0  0  0  0
   -4.3863   -0.2492    2.2947 H   0  0  0  0  0  0  0  0  0  0  0  0
   -4.7198    0.0361    0.5709 H   0  0  0  0  0  0  0  0  0  0  0  0
    3.2110    0.9503    1.8921 H   0  0  0  0  0  0  0  0  0  0  0  0
    2.6187    2.6181    1.7572 H   0  0  0  0  0  0  0  0  0  0  0  0
    3.6984    1.9754    0.5021 H   0  0  0  0  0  0  0  0  0  0  0  0
  1  2  1  0  0  0  0
  2  3  1  0  0  0  0
  2  4  1  0  0  0  0
  4  5  2  0  0  0  0
  5  6  1  0  0  0  0
  6  7  1  0  0  0  0
  7  8  2  0  0  0  0
  7  9  4  0  0  0  0
  9 10  1  0  0  0  0
  2 11  1  0  0  0  0
 11 12  1  0  0  0  0
  1 13  1  0  0  0  0
  1 14  1  0  0  0  0
  1 15  1  0  0  0  0
  3 16  1  0  0  0  0
  3 17  1  0  0  0  0
  3 18  1  0  0  0  0
  4 19  1  0  0  0  0
  9 20  1  0  0  0  0
 10 21  1  0  0  0  0
 10 22  1  0  0  0  0
 10 23  1  0  0  0  0
 12 24  1  0  0  0  0
 12 25  1  0  0  0  0
 12 26  1  0  0  0  0
M  END
