 xtb: 6.7.1 (edcfbbe)
          04112516423D

 26 25  0     0  0            999 V2000
    1.3067    1.3913   -0.9413 C   0  0  0  0  0  0  0  0  0  0  0  0
    1.5378    0.1684   -0.0566 C   0  0  0  0  0  0  0  0  0  0  0  0
    1.5875   -1.1206   -0.8743 C   0  0  0  0  0  0  0  0  0  0  0  0
    0.4668    0.0767    0.9919 C   0  0  0  0  0  0  0  0  0  0  0  0
   -0.7786   -0.0701    0.8626 N   0  0  0  0  0  0  0  0  0  0  0  0
   -1.2839   -0.1671   -0.4517 O   0  0  0  0  0  0  0  0  0  0  0  0
   -2.6456   -0.3291   -0.5418 C   0  0  0  0  0  0  0  0  0  0  0  0
   -3.1077   -0.4149   -1.6649 O   0  0  0  0  0  0  0  0  0  0  0  0
   -3.3096   -0.3746    0.6035 N   0  0  0  0  0  0  0  0  0  0  0  0
   -4.7431   -0.5399    0.6776 C   0  0  0  0  0  0  0  0  0  0  0  0
    3.1111    0.3640    0.9199 S   0  0  0  0  0  0  0  0  0  0  0  0
    4.3815    0.5987   -0.3546 C   0  0  0  0  0  0  0  0  0  0  0  0
    0.3250    1.3254   -1.4062 H   0  0  0  0  0  0  0  0  0  0  0  0
    1.3574    2.3022   -0.3482 H   0  0  0  0  0  0  0  0  0  0  0  0
    2.0532    1.4344   -1.7299 H   0  0  0  0  0  0  0  0  0  0  0  0
    2.3519   -1.0515   -1.6439 H   0  0  0  0  0  0  0  0  0  0  0  0
    0.6283   -1.2839   -1.3615 H   0  0  0  0  0  0  0  0  0  0  0  0
    1.8075   -1.9685   -0.2289 H   0  0  0  0  0  0  0  0  0  0  0  0
    0.7747    0.1434    2.0280 H   0  0  0  0  0  0  0  0  0  0  0  0
   -2.7752   -0.2873    1.4591 H   0  0  0  0  0  0  0  0  0  0  0  0
   -4.9851   -1.4469    1.2293 H   0  0  0  0  0  0  0  0  0  0  0  0
   -5.1276   -0.6172   -0.3374 H   0  0  0  0  0  0  0  0  0  0  0  0
   -5.1921    0.3197    1.1729 H   0  0  0  0  0  0  0  0  0  0  0  0
    5.3217    0.6427    0.1852 H   0  0  0  0  0  0  0  0  0  0  0  0
    4.2128    1.5329   -0.8798 H   0  0  0  0  0  0  0  0  0  0  0  0
    4.3864   -0.2465   -1.0347 H   0  0  0  0  0  0  0  0  0  0  0  0
  1  2  1  0  0  0  0
  2  3  1  0  0  0  0
  2  4  1  0  0  0  0
  4  5  2  0  0  0  0
  5  6  1  0  0  0  0
  6  7  1  0  0  0  0
  7  8  2  0  0  0  0
  7  9  4  0  0  0  0
  9 10  1  0  0  0  0
  2 11  1  0  0  0  0
 11 12  1  0  0  0  0
  1 13  1  0  0  0  0
  1 14  1  0  0  0  0
  1 15  1  0  0  0  0
  3 16  1  0  0  0  0
  3 17  1  0  0  0  0
  3 18  1  0  0  0  0
  4 19  1  0  0  0  0
  9 20  1  0  0  0  0
 10 21  1  0  0  0  0
 10 22  1  0  0  0  0
 10 23  1  0  0  0  0
 12 24  1  0  0  0  0
 12 25  1  0  0  0  0
 12 26  1  0  0  0  0
M  END
