 xtb: 6.7.1 (edcfbbe)
          04112516013D

 20 19  0     0  0            999 V2000
   -4.0185   -0.3724    0.0200 C   0  0  0  0  0  0  0  0  0  0  0  0
   -2.7518    0.4594   -0.1432 C   0  0  0  0  0  0  0  0  0  0  0  0
   -1.5026   -0.3596    0.1739 C   0  0  0  0  0  0  0  0  0  0  0  0
   -0.2373    0.4698    0.0129 C   0  0  0  0  0  0  0  0  0  0  0  0
    0.8898   -0.3546    0.3407 O   0  0  0  0  0  0  0  0  0  0  0  0
    2.0930    0.0354   -0.0616 C   0  0  0  0  0  0  0  0  0  0  0  0
    2.2846    1.0566   -0.6910 O   0  0  0  0  0  0  0  0  0  0  0  0
    3.1590   -0.9313    0.3568 C   0  0  0  0  0  0  0  0  0  0  0  0
   -4.8970    0.2258   -0.2060 H   0  0  0  0  0  0  0  0  0  0  0  0
   -4.0019   -1.2271   -0.6514 H   0  0  0  0  0  0  0  0  0  0  0  0
   -4.1041   -0.7390    1.0398 H   0  0  0  0  0  0  0  0  0  0  0  0
   -2.6886    0.8320   -1.1674 H   0  0  0  0  0  0  0  0  0  0  0  0
   -2.7949    1.3239    0.5219 H   0  0  0  0  0  0  0  0  0  0  0  0
   -1.5495   -0.7291    1.1992 H   0  0  0  0  0  0  0  0  0  0  0  0
   -1.4450   -1.2222   -0.4919 H   0  0  0  0  0  0  0  0  0  0  0  0
   -0.1188    0.8359   -1.0126 H   0  0  0  0  0  0  0  0  0  0  0  0
   -0.2398    1.3342    0.6853 H   0  0  0  0  0  0  0  0  0  0  0  0
    2.7063   -1.8099    0.8026 H   0  0  0  0  0  0  0  0  0  0  0  0
    3.8128   -0.4414    1.0744 H   0  0  0  0  0  0  0  0  0  0  0  0
    3.7574   -1.2003   -0.5093 H   0  0  0  0  0  0  0  0  0  0  0  0
  1  2  1  0  0  0  0
  2  3  1  0  0  0  0
  3  4  1  0  0  0  0
  4  5  1  0  0  0  0
  5  6  1  0  0  0  0
  6  7  2  0  0  0  0
  6  8  1  0  0  0  0
  1  9  1  0  0  0  0
  1 10  1  0  0  0  0
  1 11  1  0  0  0  0
  2 12  1  0  0  0  0
  2 13  1  0  0  0  0
  3 14  1  0  0  0  0
  3 15  1  0  0  0  0
  4 16  1  0  0  0  0
  4 17  1  0  0  0  0
  8 18  1  0  0  0  0
  8 19  1  0  0  0  0
  8 20  1  0  0  0  0
M  END
