 xtb: 6.7.1 (edcfbbe)
          04112514233D

 18 17  0     0  0            999 V2000
    1.6580    1.1002   -0.3217 C   0  0  0  0  0  0  0  0  0  0  0  0
    1.6717   -0.1847    0.4979 C   0  0  0  0  0  0  0  0  0  0  0  0
    0.7013   -1.2495   -0.0169 C   0  0  0  0  0  0  0  0  0  0  0  0
   -0.7690   -0.9696    0.3144 C   0  0  0  0  0  0  0  0  0  0  0  0
   -1.3745    0.1341   -0.4916 C   0  0  0  0  0  0  0  0  0  0  0  0
   -2.1074    1.1137    0.0057 C   0  0  0  0  0  0  0  0  0  0  0  0
    2.3911    1.8028    0.0680 H   0  0  0  0  0  0  0  0  0  0  0  0
    0.6786    1.5692   -0.2879 H   0  0  0  0  0  0  0  0  0  0  0  0
    1.9041    0.8903   -1.3606 H   0  0  0  0  0  0  0  0  0  0  0  0
    2.6825   -0.6001    0.4779 H   0  0  0  0  0  0  0  0  0  0  0  0
    1.4320    0.0461    1.5382 H   0  0  0  0  0  0  0  0  0  0  0  0
    0.8169   -1.3518   -1.0981 H   0  0  0  0  0  0  0  0  0  0  0  0
    0.9711   -2.2062    0.4365 H   0  0  0  0  0  0  0  0  0  0  0  0
   -1.3384   -1.8812    0.1049 H   0  0  0  0  0  0  0  0  0  0  0  0
   -0.8721   -0.7511    1.3792 H   0  0  0  0  0  0  0  0  0  0  0  0
   -1.2016    0.0735   -1.5588 H   0  0  0  0  0  0  0  0  0  0  0  0
   -2.5450    1.8750   -0.6176 H   0  0  0  0  0  0  0  0  0  0  0  0
   -2.2980    1.1972    1.0635 H   0  0  0  0  0  0  0  0  0  0  0  0
  1  2  1  0  0  0  0
  2  3  1  0  0  0  0
  3  4  1  0  0  0  0
  4  5  1  0  0  0  0
  5  6  2  0  0  0  0
  1  7  1  0  0  0  0
  1  8  1  0  0  0  0
  1  9  1  0  0  0  0
  2 10  1  0  0  0  0
  2 11  1  0  0  0  0
  3 12  1  0  0  0  0
  3 13  1  0  0  0  0
  4 14  1  0  0  0  0
  4 15  1  0  0  0  0
  5 16  1  0  0  0  0
  6 17  1  0  0  0  0
  6 18  1  0  0  0  0
M  END
