 xtb: 6.7.1 (edcfbbe)
          04112516253D

 17 16  0     0  0            999 V2000
   -2.4459   -0.6330    0.3547 C   0  0  0  0  0  0  0  0  0  0  0  0
   -1.6697    0.1171   -0.7224 C   0  0  0  0  0  0  0  0  0  0  0  0
   -0.8015    1.2463   -0.1651 C   0  0  0  0  0  0  0  0  0  0  0  0
    0.2749    0.7618    0.8161 C   0  0  0  0  0  0  0  0  0  0  0  0
    1.1926   -0.2392    0.1698 C   0  0  0  0  0  0  0  0  0  0  0  0
    1.3126   -1.3960    0.5177 O   0  0  0  0  0  0  0  0  0  0  0  0
    1.8800    0.2727   -0.8388 O   0  0  0  0  0  0  0  0  0  0  0  0
   -1.7730   -1.2068    0.9873 H   0  0  0  0  0  0  0  0  0  0  0  0
   -3.0056    0.0621    0.9760 H   0  0  0  0  0  0  0  0  0  0  0  0
   -3.1468   -1.3266   -0.1031 H   0  0  0  0  0  0  0  0  0  0  0  0
   -2.3747    0.5503   -1.4349 H   0  0  0  0  0  0  0  0  0  0  0  0
   -1.0419   -0.5915   -1.2684 H   0  0  0  0  0  0  0  0  0  0  0  0
   -0.3114    1.7585   -0.9947 H   0  0  0  0  0  0  0  0  0  0  0  0
   -1.4367    1.9653    0.3540 H   0  0  0  0  0  0  0  0  0  0  0  0
   -0.1752    0.3027    1.6945 H   0  0  0  0  0  0  0  0  0  0  0  0
    0.8788    1.6160    1.1246 H   0  0  0  0  0  0  0  0  0  0  0  0
    2.4768   -0.3761   -1.2585 H   0  0  0  0  0  0  0  0  0  0  0  0
  1  2  1  0  0  0  0
  2  3  1  0  0  0  0
  3  4  1  0  0  0  0
  4  5  1  0  0  0  0
  5  6  2  0  0  0  0
  5  7  1  0  0  0  0
  1  8  1  0  0  0  0
  1  9  1  0  0  0  0
  1 10  1  0  0  0  0
  2 11  1  0  0  0  0
  2 12  1  0  0  0  0
  3 13  1  0  0  0  0
  3 14  1  0  0  0  0
  4 15  1  0  0  0  0
  4 16  1  0  0  0  0
  7 17  1  0  0  0  0
M  END
