 xtb: 6.7.1 (edcfbbe)
          04112516293D

 20 19  0     0  0            999 V2000
   -2.3513   -1.2895    0.3127 C   0  0  0  0  0  0  0  0  0  0  0  0
   -2.6717    0.2003    0.3206 C   0  0  0  0  0  0  0  0  0  0  0  0
   -1.6868    1.0325   -0.5018 C   0  0  0  0  0  0  0  0  0  0  0  0
   -0.2826    1.0852    0.0871 C   0  0  0  0  0  0  0  0  0  0  0  0
    0.4221   -0.1224   -0.2368 O   0  0  0  0  0  0  0  0  0  0  0  0
    1.7281   -0.1563   -0.0126 C   0  0  0  0  0  0  0  0  0  0  0  0
    2.3458    0.7808    0.4535 O   0  0  0  0  0  0  0  0  0  0  0  0
    2.3258   -1.4784   -0.3897 C   0  0  0  0  0  0  0  0  0  0  0  0
   -2.3423   -1.6694   -0.7059 H   0  0  0  0  0  0  0  0  0  0  0  0
   -1.3769   -1.4775    0.7541 H   0  0  0  0  0  0  0  0  0  0  0  0
   -3.0991   -1.8386    0.8797 H   0  0  0  0  0  0  0  0  0  0  0  0
   -3.6718    0.3508   -0.0904 H   0  0  0  0  0  0  0  0  0  0  0  0
   -2.6778    0.5669    1.3493 H   0  0  0  0  0  0  0  0  0  0  0  0
   -1.6204    0.6309   -1.5138 H   0  0  0  0  0  0  0  0  0  0  0  0
   -2.0542    2.0573   -0.5628 H   0  0  0  0  0  0  0  0  0  0  0  0
    0.2872    1.9269   -0.3214 H   0  0  0  0  0  0  0  0  0  0  0  0
   -0.3084    1.1919    1.1767 H   0  0  0  0  0  0  0  0  0  0  0  0
    1.6770   -1.9927   -1.0902 H   0  0  0  0  0  0  0  0  0  0  0  0
    2.4296   -2.0788    0.5118 H   0  0  0  0  0  0  0  0  0  0  0  0
    3.3149   -1.3225   -0.8092 H   0  0  0  0  0  0  0  0  0  0  0  0
  1  2  1  0  0  0  0
  2  3  1  0  0  0  0
  3  4  1  0  0  0  0
  4  5  1  0  0  0  0
  5  6  1  0  0  0  0
  6  7  2  0  0  0  0
  6  8  1  0  0  0  0
  1  9  1  0  0  0  0
  1 10  1  0  0  0  0
  1 11  1  0  0  0  0
  2 12  1  0  0  0  0
  2 13  1  0  0  0  0
  3 14  1  0  0  0  0
  3 15  1  0  0  0  0
  4 16  1  0  0  0  0
  4 17  1  0  0  0  0
  8 18  1  0  0  0  0
  8 19  1  0  0  0  0
  8 20  1  0  0  0  0
M  END
