 xtb: 6.7.1 (edcfbbe)
          04112516013D

 20 19  0     0  0            999 V2000
   -3.6716   -0.6661    0.3683 C   0  0  0  0  0  0  0  0  0  0  0  0
   -2.3322   -0.4370   -0.3211 C   0  0  0  0  0  0  0  0  0  0  0  0
   -1.5565    0.7099    0.3247 C   0  0  0  0  0  0  0  0  0  0  0  0
   -0.2091    0.9385   -0.3464 C   0  0  0  0  0  0  0  0  0  0  0  0
    0.6255   -0.2083   -0.1245 O   0  0  0  0  0  0  0  0  0  0  0  0
    1.9365   -0.0347   -0.0269 C   0  0  0  0  0  0  0  0  0  0  0  0
    2.4791    1.0470   -0.1365 O   0  0  0  0  0  0  0  0  0  0  0  0
    2.6471   -1.3260    0.2471 C   0  0  0  0  0  0  0  0  0  0  0  0
   -3.5240   -0.9124    1.4170 H   0  0  0  0  0  0  0  0  0  0  0  0
   -4.2878    0.2280    0.3097 H   0  0  0  0  0  0  0  0  0  0  0  0
   -4.2072   -1.4848   -0.1048 H   0  0  0  0  0  0  0  0  0  0  0  0
   -1.7303   -1.3454   -0.2679 H   0  0  0  0  0  0  0  0  0  0  0  0
   -2.4998   -0.2079   -1.3754 H   0  0  0  0  0  0  0  0  0  0  0  0
   -2.1311    1.6339    0.2522 H   0  0  0  0  0  0  0  0  0  0  0  0
   -1.3917    0.4905    1.3809 H   0  0  0  0  0  0  0  0  0  0  0  0
   -0.3251    1.0630   -1.4277 H   0  0  0  0  0  0  0  0  0  0  0  0
    0.2997    1.8204    0.0563 H   0  0  0  0  0  0  0  0  0  0  0  0
    3.5310   -1.3916   -0.3805 H   0  0  0  0  0  0  0  0  0  0  0  0
    1.9794   -2.1619    0.0708 H   0  0  0  0  0  0  0  0  0  0  0  0
    2.9711   -1.3275    1.2855 H   0  0  0  0  0  0  0  0  0  0  0  0
  1  2  1  0  0  0  0
  2  3  1  0  0  0  0
  3  4  1  0  0  0  0
  4  5  1  0  0  0  0
  5  6  1  0  0  0  0
  6  7  2  0  0  0  0
  6  8  1  0  0  0  0
  1  9  1  0  0  0  0
  1 10  1  0  0  0  0
  1 11  1  0  0  0  0
  2 12  1  0  0  0  0
  2 13  1  0  0  0  0
  3 14  1  0  0  0  0
  3 15  1  0  0  0  0
  4 16  1  0  0  0  0
  4 17  1  0  0  0  0
  8 18  1  0  0  0  0
  8 19  1  0  0  0  0
  8 20  1  0  0  0  0
M  END
