 xtb: 6.7.1 (edcfbbe)
          04112516093D

 19 18  0     0  0            999 V2000
    3.3677   -0.1673    0.3906 C   0  0  0  0  0  0  0  0  0  0  0  0
    2.1780    0.4806   -0.3075 C   0  0  0  0  0  0  0  0  0  0  0  0
    0.8564   -0.1127    0.1733 C   0  0  0  0  0  0  0  0  0  0  0  0
   -0.3493    0.5496   -0.5039 C   0  0  0  0  0  0  0  0  0  0  0  0
   -1.6319   -0.1337   -0.0900 C   0  0  0  0  0  0  0  0  0  0  0  0
   -1.7984   -1.3293   -0.2378 O   0  0  0  0  0  0  0  0  0  0  0  0
   -2.6699    0.7570    0.5216 C   0  0  0  0  0  0  0  0  0  0  0  0
    3.3857   -1.2374    0.1966 H   0  0  0  0  0  0  0  0  0  0  0  0
    4.3001    0.2630    0.0342 H   0  0  0  0  0  0  0  0  0  0  0  0
    3.3075   -0.0166    1.4660 H   0  0  0  0  0  0  0  0  0  0  0  0
    2.2676    0.3371   -1.3861 H   0  0  0  0  0  0  0  0  0  0  0  0
    2.1839    1.5549   -0.1119 H   0  0  0  0  0  0  0  0  0  0  0  0
    0.7744    0.0135    1.2554 H   0  0  0  0  0  0  0  0  0  0  0  0
    0.8319   -1.1842   -0.0371 H   0  0  0  0  0  0  0  0  0  0  0  0
   -0.3840    1.6109   -0.2640 H   0  0  0  0  0  0  0  0  0  0  0  0
   -0.2457    0.4340   -1.5855 H   0  0  0  0  0  0  0  0  0  0  0  0
   -2.9252    1.5471   -0.1804 H   0  0  0  0  0  0  0  0  0  0  0  0
   -3.5588    0.1884    0.7804 H   0  0  0  0  0  0  0  0  0  0  0  0
   -2.2562    1.2225    1.4132 H   0  0  0  0  0  0  0  0  0  0  0  0
  1  2  1  0  0  0  0
  2  3  1  0  0  0  0
  3  4  1  0  0  0  0
  4  5  1  0  0  0  0
  5  6  2  0  0  0  0
  5  7  1  0  0  0  0
  1  8  1  0  0  0  0
  1  9  1  0  0  0  0
  1 10  1  0  0  0  0
  2 11  1  0  0  0  0
  2 12  1  0  0  0  0
  3 13  1  0  0  0  0
  3 14  1  0  0  0  0
  4 15  1  0  0  0  0
  4 16  1  0  0  0  0
  7 17  1  0  0  0  0
  7 18  1  0  0  0  0
  7 19  1  0  0  0  0
M  END
