 xtb: 6.7.1 (edcfbbe)
          04112516193D

 23 23  0     0  0            999 V2000
   -4.1486   -0.4862   -0.0930 C   0  0  0  0  0  0  0  0  0  0  0  0
   -3.1692    0.5346    0.0065 O   0  0  0  0  0  0  0  0  0  0  0  0
   -1.8568    0.1751    0.0302 C   0  0  0  0  0  0  0  0  0  0  0  0
   -1.3676   -1.1092   -0.0501 C   0  0  0  0  0  0  0  0  0  0  0  0
    0.0122   -1.3572   -0.0080 C   0  0  0  0  0  0  0  0  0  0  0  0
    0.9026   -0.2783    0.1160 C   0  0  0  0  0  0  0  0  0  0  0  0
    0.4307    1.0348    0.1579 C   0  0  0  0  0  0  0  0  0  0  0  0
   -0.9583    1.2565    0.1241 C   0  0  0  0  0  0  0  0  0  0  0  0
   -1.4039    2.5183    0.1778 O   0  0  0  0  0  0  0  0  0  0  0  0
    1.1758    2.1640    0.2829 O   0  0  0  0  0  0  0  0  0  0  0  0
    2.3566    2.3326   -0.4951 C   0  0  0  0  0  0  0  0  0  0  0  0
    2.5969   -0.5998    0.2716 Cl  0  0  0  0  0  0  0  0  0  0  0  0
    0.4355   -2.7444   -0.0897 C   0  0  0  0  0  0  0  0  0  0  0  0
    1.5707   -3.1817   -0.0902 O   0  0  0  0  0  0  0  0  0  0  0  0
   -4.0384   -1.0444   -1.0247 H   0  0  0  0  0  0  0  0  0  0  0  0
   -5.1026    0.0349   -0.0864 H   0  0  0  0  0  0  0  0  0  0  0  0
   -4.0919   -1.1656    0.7596 H   0  0  0  0  0  0  0  0  0  0  0  0
   -2.0326   -1.9515   -0.1422 H   0  0  0  0  0  0  0  0  0  0  0  0
   -2.3790    2.5253    0.1550 H   0  0  0  0  0  0  0  0  0  0  0  0
    2.4116    3.4011   -0.6988 H   0  0  0  0  0  0  0  0  0  0  0  0
    2.2961    1.7802   -1.4326 H   0  0  0  0  0  0  0  0  0  0  0  0
    3.2410    2.0182    0.0604 H   0  0  0  0  0  0  0  0  0  0  0  0
   -0.4129   -3.4491   -0.1628 H   0  0  0  0  0  0  0  0  0  0  0  0
  1  2  1  0  0  0  0
  2  3  1  0  0  0  0
  3  4  4  0  0  0  0
  4  5  4  0  0  0  0
  5  6  4  0  0  0  0
  6  7  4  0  0  0  0
  3  8  4  0  0  0  0
  7  8  4  0  0  0  0
  8  9  1  0  0  0  0
  7 10  1  0  0  0  0
 10 11  1  0  0  0  0
  6 12  1  0  0  0  0
  5 13  1  0  0  0  0
 13 14  2  0  0  0  0
  1 15  1  0  0  0  0
  1 16  1  0  0  0  0
  1 17  1  0  0  0  0
  4 18  1  0  0  0  0
  9 19  1  0  0  0  0
 11 20  1  0  0  0  0
 11 21  1  0  0  0  0
 11 22  1  0  0  0  0
 13 23  1  0  0  0  0
M  END
