 xtb: 6.7.1 (edcfbbe)
          04112514233D

 23 22  0     0  0            999 V2000
    1.7038    1.3185   -0.7446 C   0  0  0  0  0  0  0  0  0  0  0  0
    2.1920   -0.0914   -0.4233 C   0  0  0  0  0  0  0  0  0  0  0  0
    3.6526   -0.0512    0.0242 C   0  0  0  0  0  0  0  0  0  0  0  0
    1.3388   -0.7549    0.6647 C   0  0  0  0  0  0  0  0  0  0  0  0
   -0.0929   -1.0560    0.2410 C   0  0  0  0  0  0  0  0  0  0  0  0
   -0.8890    0.1323    0.3578 O   0  0  0  0  0  0  0  0  0  0  0  0
   -2.1731    0.0484    0.0391 C   0  0  0  0  0  0  0  0  0  0  0  0
   -2.6948   -0.9807   -0.3430 O   0  0  0  0  0  0  0  0  0  0  0  0
   -2.8736    1.3646    0.1939 C   0  0  0  0  0  0  0  0  0  0  0  0
    0.6771    1.3037   -1.0981 H   0  0  0  0  0  0  0  0  0  0  0  0
    2.3262    1.7662   -1.5159 H   0  0  0  0  0  0  0  0  0  0  0  0
    1.7502    1.9444    0.1434 H   0  0  0  0  0  0  0  0  0  0  0  0
    2.1240   -0.7012   -1.3315 H   0  0  0  0  0  0  0  0  0  0  0  0
    4.2711    0.4072   -0.7431 H   0  0  0  0  0  0  0  0  0  0  0  0
    4.0265   -1.0546    0.2119 H   0  0  0  0  0  0  0  0  0  0  0  0
    3.7518    0.5305    0.9375 H   0  0  0  0  0  0  0  0  0  0  0  0
    1.3076   -0.1139    1.5468 H   0  0  0  0  0  0  0  0  0  0  0  0
    1.8027   -1.7010    0.9458 H   0  0  0  0  0  0  0  0  0  0  0  0
   -0.1435   -1.4122   -0.7935 H   0  0  0  0  0  0  0  0  0  0  0  0
   -0.5408   -1.8228    0.8822 H   0  0  0  0  0  0  0  0  0  0  0  0
   -2.3631    1.9701    0.9351 H   0  0  0  0  0  0  0  0  0  0  0  0
   -3.9105    1.1954    0.4669 H   0  0  0  0  0  0  0  0  0  0  0  0
   -2.8494    1.8815   -0.7634 H   0  0  0  0  0  0  0  0  0  0  0  0
  1  2  1  0  0  0  0
  2  3  1  0  0  0  0
  2  4  1  0  0  0  0
  4  5  1  0  0  0  0
  5  6  1  0  0  0  0
  6  7  1  0  0  0  0
  7  8  2  0  0  0  0
  7  9  1  0  0  0  0
  1 10  1  0  0  0  0
  1 11  1  0  0  0  0
  1 12  1  0  0  0  0
  2 13  1  0  0  0  0
  3 14  1  0  0  0  0
  3 15  1  0  0  0  0
  3 16  1  0  0  0  0
  4 17  1  0  0  0  0
  4 18  1  0  0  0  0
  5 19  1  0  0  0  0
  5 20  1  0  0  0  0
  9 21  1  0  0  0  0
  9 22  1  0  0  0  0
  9 23  1  0  0  0  0
M  END
