 xtb: 6.7.1 (edcfbbe)
          04112514233D

 23 22  0     0  0            999 V2000
    1.7833    0.7988   -1.3716 C   0  0  0  0  0  0  0  0  0  0  0  0
    2.2541   -0.2400   -0.3576 C   0  0  0  0  0  0  0  0  0  0  0  0
    3.6615    0.1016    0.1302 C   0  0  0  0  0  0  0  0  0  0  0  0
    1.3018   -0.3361    0.8407 C   0  0  0  0  0  0  0  0  0  0  0  0
   -0.0683   -0.9154    0.5063 C   0  0  0  0  0  0  0  0  0  0  0  0
   -0.8987    0.0871   -0.0987 O   0  0  0  0  0  0  0  0  0  0  0  0
   -2.2044    0.0570    0.1303 C   0  0  0  0  0  0  0  0  0  0  0  0
   -2.7451   -0.7827    0.8224 O   0  0  0  0  0  0  0  0  0  0  0  0
   -2.9155    1.1711   -0.5776 C   0  0  0  0  0  0  0  0  0  0  0  0
    2.4666    0.8374   -2.2166 H   0  0  0  0  0  0  0  0  0  0  0  0
    1.7486    1.7839   -0.9118 H   0  0  0  0  0  0  0  0  0  0  0  0
    0.7907    0.5578   -1.7395 H   0  0  0  0  0  0  0  0  0  0  0  0
    2.2862   -1.2192   -0.8484 H   0  0  0  0  0  0  0  0  0  0  0  0
    3.6619    1.0615    0.6412 H   0  0  0  0  0  0  0  0  0  0  0  0
    4.3492    0.1601   -0.7095 H   0  0  0  0  0  0  0  0  0  0  0  0
    4.0258   -0.6559    0.8198 H   0  0  0  0  0  0  0  0  0  0  0  0
    1.1649    0.6535    1.2796 H   0  0  0  0  0  0  0  0  0  0  0  0
    1.7512   -0.9828    1.5955 H   0  0  0  0  0  0  0  0  0  0  0  0
    0.0181   -1.7500   -0.1967 H   0  0  0  0  0  0  0  0  0  0  0  0
   -0.5765   -1.2717    1.4086 H   0  0  0  0  0  0  0  0  0  0  0  0
   -2.2324    1.9945   -0.7556 H   0  0  0  0  0  0  0  0  0  0  0  0
   -3.7710    1.4873    0.0109 H   0  0  0  0  0  0  0  0  0  0  0  0
   -3.2761    0.7949   -1.5328 H   0  0  0  0  0  0  0  0  0  0  0  0
  1  2  1  0  0  0  0
  2  3  1  0  0  0  0
  2  4  1  0  0  0  0
  4  5  1  0  0  0  0
  5  6  1  0  0  0  0
  6  7  1  0  0  0  0
  7  8  2  0  0  0  0
  7  9  1  0  0  0  0
  1 10  1  0  0  0  0
  1 11  1  0  0  0  0
  1 12  1  0  0  0  0
  2 13  1  0  0  0  0
  3 14  1  0  0  0  0
  3 15  1  0  0  0  0
  3 16  1  0  0  0  0
  4 17  1  0  0  0  0
  4 18  1  0  0  0  0
  5 19  1  0  0  0  0
  5 20  1  0  0  0  0
  9 21  1  0  0  0  0
  9 22  1  0  0  0  0
  9 23  1  0  0  0  0
M  END
