 xtb: 6.7.1 (edcfbbe)
          04112514203D

 23 22  0     0  0            999 V2000
    2.4129   -1.1873   -0.3536 C   0  0  0  0  0  0  0  0  0  0  0  0
    1.8685   -0.2308    0.7013 C   0  0  0  0  0  0  0  0  0  0  0  0
    1.1813    0.9967    0.1015 C   0  0  0  0  0  0  0  0  0  0  0  0
   -0.1223    0.7156   -0.6503 C   0  0  0  0  0  0  0  0  0  0  0  0
   -1.2689    0.2030    0.2416 C   0  0  0  0  0  0  0  0  0  0  0  0
   -2.5751    0.9248   -0.0914 C   0  0  0  0  0  0  0  0  0  0  0  0
   -1.4714   -1.3047    0.0938 C   0  0  0  0  0  0  0  0  0  0  0  0
    3.1063   -0.6691   -1.0126 H   0  0  0  0  0  0  0  0  0  0  0  0
    2.9411   -2.0114    0.1207 H   0  0  0  0  0  0  0  0  0  0  0  0
    1.6111   -1.6022   -0.9585 H   0  0  0  0  0  0  0  0  0  0  0  0
    2.6994    0.1135    1.3224 H   0  0  0  0  0  0  0  0  0  0  0  0
    1.1730   -0.7596    1.3548 H   0  0  0  0  0  0  0  0  0  0  0  0
    0.9700    1.7059    0.9061 H   0  0  0  0  0  0  0  0  0  0  0  0
    1.8790    1.4816   -0.5863 H   0  0  0  0  0  0  0  0  0  0  0  0
   -0.4320    1.6522   -1.1194 H   0  0  0  0  0  0  0  0  0  0  0  0
    0.0631    0.0034   -1.4549 H   0  0  0  0  0  0  0  0  0  0  0  0
   -1.0220    0.4187    1.2871 H   0  0  0  0  0  0  0  0  0  0  0  0
   -2.8463    0.7545   -1.1313 H   0  0  0  0  0  0  0  0  0  0  0  0
   -3.3842    0.5596    0.5375 H   0  0  0  0  0  0  0  0  0  0  0  0
   -2.4748    1.9959    0.0688 H   0  0  0  0  0  0  0  0  0  0  0  0
   -2.2560   -1.6495    0.7643 H   0  0  0  0  0  0  0  0  0  0  0  0
   -0.5610   -1.8496    0.3268 H   0  0  0  0  0  0  0  0  0  0  0  0
   -1.7651   -1.5458   -0.9261 H   0  0  0  0  0  0  0  0  0  0  0  0
  1  2  1  0  0  0  0
  2  3  1  0  0  0  0
  3  4  1  0  0  0  0
  4  5  1  0  0  0  0
  5  6  1  0  0  0  0
  5  7  1  0  0  0  0
  1  8  1  0  0  0  0
  1  9  1  0  0  0  0
  1 10  1  0  0  0  0
  2 11  1  0  0  0  0
  2 12  1  0  0  0  0
  3 13  1  0  0  0  0
  3 14  1  0  0  0  0
  4 15  1  0  0  0  0
  4 16  1  0  0  0  0
  5 17  1  0  0  0  0
  6 18  1  0  0  0  0
  6 19  1  0  0  0  0
  6 20  1  0  0  0  0
  7 21  1  0  0  0  0
  7 22  1  0  0  0  0
  7 23  1  0  0  0  0
M  END
