 xtb: 6.7.1 (edcfbbe)
          04112516013D

 20 19  0     0  0            999 V2000
   -3.5349   -0.4140    0.0612 C   0  0  0  0  0  0  0  0  0  0  0  0
   -2.5804    0.7409   -0.2224 C   0  0  0  0  0  0  0  0  0  0  0  0
   -1.1978    0.5462    0.3996 C   0  0  0  0  0  0  0  0  0  0  0  0
   -0.4167   -0.5901   -0.2555 C   0  0  0  0  0  0  0  0  0  0  0  0
    0.8685   -0.7543    0.3594 O   0  0  0  0  0  0  0  0  0  0  0  0
    1.8778   -0.0004   -0.0656 C   0  0  0  0  0  0  0  0  0  0  0  0
    1.7778    0.8088   -0.9644 O   0  0  0  0  0  0  0  0  0  0  0  0
    3.1348   -0.2893    0.6985 C   0  0  0  0  0  0  0  0  0  0  0  0
   -3.1977   -1.3289   -0.4177 H   0  0  0  0  0  0  0  0  0  0  0  0
   -3.6106   -0.5895    1.1314 H   0  0  0  0  0  0  0  0  0  0  0  0
   -4.5258   -0.1791   -0.3187 H   0  0  0  0  0  0  0  0  0  0  0  0
   -2.4730    0.8728   -1.3008 H   0  0  0  0  0  0  0  0  0  0  0  0
   -3.0070    1.6601    0.1826 H   0  0  0  0  0  0  0  0  0  0  0  0
   -0.6181    1.4654    0.2834 H   0  0  0  0  0  0  0  0  0  0  0  0
   -1.2953    0.3378    1.4668 H   0  0  0  0  0  0  0  0  0  0  0  0
   -0.9114   -1.5506   -0.1138 H   0  0  0  0  0  0  0  0  0  0  0  0
   -0.2757   -0.3870   -1.3221 H   0  0  0  0  0  0  0  0  0  0  0  0
    3.3269   -1.3581    0.6857 H   0  0  0  0  0  0  0  0  0  0  0  0
    2.9964    0.0166    1.7324 H   0  0  0  0  0  0  0  0  0  0  0  0
    3.9631    0.2552    0.2578 H   0  0  0  0  0  0  0  0  0  0  0  0
  1  2  1  0  0  0  0
  2  3  1  0  0  0  0
  3  4  1  0  0  0  0
  4  5  1  0  0  0  0
  5  6  1  0  0  0  0
  6  7  2  0  0  0  0
  6  8  1  0  0  0  0
  1  9  1  0  0  0  0
  1 10  1  0  0  0  0
  1 11  1  0  0  0  0
  2 12  1  0  0  0  0
  2 13  1  0  0  0  0
  3 14  1  0  0  0  0
  3 15  1  0  0  0  0
  4 16  1  0  0  0  0
  4 17  1  0  0  0  0
  8 18  1  0  0  0  0
  8 19  1  0  0  0  0
  8 20  1  0  0  0  0
M  END
