 xtb: 6.7.1 (edcfbbe)
          04112516213D

 19 18  0     0  0            999 V2000
    3.2950    0.2703    0.6019 C   0  0  0  0  0  0  0  0  0  0  0  0
    2.1707    0.2523   -0.4273 C   0  0  0  0  0  0  0  0  0  0  0  0
    0.8049    0.0843    0.2362 C   0  0  0  0  0  0  0  0  0  0  0  0
   -0.3184    0.0532   -0.8056 C   0  0  0  0  0  0  0  0  0  0  0  0
   -1.6803   -0.1827   -0.2026 C   0  0  0  0  0  0  0  0  0  0  0  0
   -2.3922   -1.0977   -0.5730 O   0  0  0  0  0  0  0  0  0  0  0  0
   -2.1039    0.7707    0.8749 C   0  0  0  0  0  0  0  0  0  0  0  0
    4.2575    0.3916    0.1119 H   0  0  0  0  0  0  0  0  0  0  0  0
    3.1595    1.0915    1.3018 H   0  0  0  0  0  0  0  0  0  0  0  0
    3.3114   -0.6603    1.1647 H   0  0  0  0  0  0  0  0  0  0  0  0
    2.3359   -0.5669   -1.1302 H   0  0  0  0  0  0  0  0  0  0  0  0
    2.1835    1.1846   -0.9955 H   0  0  0  0  0  0  0  0  0  0  0  0
    0.6453    0.9081    0.9321 H   0  0  0  0  0  0  0  0  0  0  0  0
    0.7933   -0.8485    0.8043 H   0  0  0  0  0  0  0  0  0  0  0  0
   -0.3464    1.0102   -1.3316 H   0  0  0  0  0  0  0  0  0  0  0  0
   -0.1259   -0.7343   -1.5372 H   0  0  0  0  0  0  0  0  0  0  0  0
   -1.8068    1.7859    0.6326 H   0  0  0  0  0  0  0  0  0  0  0  0
   -3.1790    0.7112    1.0211 H   0  0  0  0  0  0  0  0  0  0  0  0
   -1.6141    0.4807    1.8025 H   0  0  0  0  0  0  0  0  0  0  0  0
  1  2  1  0  0  0  0
  2  3  1  0  0  0  0
  3  4  1  0  0  0  0
  4  5  1  0  0  0  0
  5  6  2  0  0  0  0
  5  7  1  0  0  0  0
  1  8  1  0  0  0  0
  1  9  1  0  0  0  0
  1 10  1  0  0  0  0
  2 11  1  0  0  0  0
  2 12  1  0  0  0  0
  3 13  1  0  0  0  0
  3 14  1  0  0  0  0
  4 15  1  0  0  0  0
  4 16  1  0  0  0  0
  7 17  1  0  0  0  0
  7 18  1  0  0  0  0
  7 19  1  0  0  0  0
M  END
