 xtb: 6.7.1 (edcfbbe)
          04112514053D

 17 16  0     0  0            999 V2000
   -2.4614   -0.2537    0.9963 C   0  0  0  0  0  0  0  0  0  0  0  0
   -1.6807   -0.6809   -0.2440 C   0  0  0  0  0  0  0  0  0  0  0  0
   -1.5558    0.4744   -1.2359 C   0  0  0  0  0  0  0  0  0  0  0  0
   -0.2998   -1.2183    0.1537 C   0  0  0  0  0  0  0  0  0  0  0  0
    0.4981   -0.2004    0.7647 O   0  0  0  0  0  0  0  0  0  0  0  0
    1.4541    0.4059    0.0282 N   0  0  0  0  0  0  0  0  0  0  0  0
    1.6579    0.0230   -1.0827 O   0  0  0  0  0  0  0  0  0  0  0  0
    2.0135    1.2870    0.6084 O   0  0  0  0  0  0  0  0  0  0  0  0
   -2.6146   -1.0981    1.6626 H   0  0  0  0  0  0  0  0  0  0  0  0
   -3.4318    0.1422    0.7110 H   0  0  0  0  0  0  0  0  0  0  0  0
   -1.9176    0.5178    1.5363 H   0  0  0  0  0  0  0  0  0  0  0  0
   -2.2021   -1.5094   -0.7314 H   0  0  0  0  0  0  0  0  0  0  0  0
   -0.9368    0.1945   -2.0858 H   0  0  0  0  0  0  0  0  0  0  0  0
   -1.1164    1.3488   -0.7576 H   0  0  0  0  0  0  0  0  0  0  0  0
   -2.5379    0.7567   -1.6040 H   0  0  0  0  0  0  0  0  0  0  0  0
   -0.3929   -1.9925    0.9159 H   0  0  0  0  0  0  0  0  0  0  0  0
    0.2304   -1.6121   -0.7171 H   0  0  0  0  0  0  0  0  0  0  0  0
  1  2  1  0  0  0  0
  2  3  1  0  0  0  0
  2  4  1  0  0  0  0
  4  5  1  0  0  0  0
  5  6  1  0  0  0  0
  6  7  4  0  0  0  0
  6  8  4  0  0  0  0
  1  9  1  0  0  0  0
  1 10  1  0  0  0  0
  1 11  1  0  0  0  0
  2 12  1  0  0  0  0
  3 13  1  0  0  0  0
  3 14  1  0  0  0  0
  3 15  1  0  0  0  0
  4 16  1  0  0  0  0
  4 17  1  0  0  0  0
M  END
