 xtb: 6.7.1 (edcfbbe)
          04112516123D

 19 18  0     0  0            999 V2000
   -2.6429   -0.8690    0.0251 C   0  0  0  0  0  0  0  0  0  0  0  0
   -2.1234    0.4370   -0.5659 C   0  0  0  0  0  0  0  0  0  0  0  0
   -1.1575    1.1785    0.3611 C   0  0  0  0  0  0  0  0  0  0  0  0
    0.1280    0.4206    0.6948 C   0  0  0  0  0  0  0  0  0  0  0  0
    0.9973    0.1511   -0.5388 C   0  0  0  0  0  0  0  0  0  0  0  0
    2.2605   -0.4500   -0.1635 C   0  0  0  0  0  0  0  0  0  0  0  0
    3.2959   -0.9479    0.1727 C   0  0  0  0  0  0  0  0  0  0  0  0
   -3.0866   -0.6934    1.0028 H   0  0  0  0  0  0  0  0  0  0  0  0
   -1.8430   -1.5964    0.1359 H   0  0  0  0  0  0  0  0  0  0  0  0
   -3.4022   -1.2994   -0.6238 H   0  0  0  0  0  0  0  0  0  0  0  0
   -1.6408    0.2366   -1.5240 H   0  0  0  0  0  0  0  0  0  0  0  0
   -2.9723    1.0960   -0.7639 H   0  0  0  0  0  0  0  0  0  0  0  0
   -1.6757    1.4015    1.2971 H   0  0  0  0  0  0  0  0  0  0  0  0
   -0.8931    2.1321   -0.1032 H   0  0  0  0  0  0  0  0  0  0  0  0
   -0.1095   -0.5259    1.1829 H   0  0  0  0  0  0  0  0  0  0  0  0
    0.7066    1.0162    1.4055 H   0  0  0  0  0  0  0  0  0  0  0  0
    1.1948    1.0903   -1.0633 H   0  0  0  0  0  0  0  0  0  0  0  0
    0.4829   -0.5252   -1.2253 H   0  0  0  0  0  0  0  0  0  0  0  0
    4.2075   -1.3833    0.4537 H   0  0  0  0  0  0  0  0  0  0  0  0
  1  2  1  0  0  0  0
  2  3  1  0  0  0  0
  3  4  1  0  0  0  0
  4  5  1  0  0  0  0
  5  6  1  0  0  0  0
  6  7  3  0  0  0  0
  1  8  1  0  0  0  0
  1  9  1  0  0  0  0
  1 10  1  0  0  0  0
  2 11  1  0  0  0  0
  2 12  1  0  0  0  0
  3 13  1  0  0  0  0
  3 14  1  0  0  0  0
  4 15  1  0  0  0  0
  4 16  1  0  0  0  0
  5 17  1  0  0  0  0
  5 18  1  0  0  0  0
  7 19  1  0  0  0  0
M  END
