 xtb: 6.7.1 (edcfbbe)
          04112516593D

 20 19  0     0  0            999 V2000
   -4.0309   -0.3417    0.0834 C   0  0  0  0  0  0  0  0  0  0  0  0
   -2.7530    0.4510   -0.1646 C   0  0  0  0  0  0  0  0  0  0  0  0
   -1.5105   -0.3852    0.1331 C   0  0  0  0  0  0  0  0  0  0  0  0
   -0.2359    0.4068   -0.1148 C   0  0  0  0  0  0  0  0  0  0  0  0
    0.8855   -0.4368    0.1821 O   0  0  0  0  0  0  0  0  0  0  0  0
    2.1013    0.0745    0.0322 C   0  0  0  0  0  0  0  0  0  0  0  0
    2.2975    1.2136   -0.3417 O   0  0  0  0  0  0  0  0  0  0  0  0
    3.1709   -0.9165    0.3773 C   0  0  0  0  0  0  0  0  0  0  0  0
   -4.9036    0.2681   -0.1343 H   0  0  0  0  0  0  0  0  0  0  0  0
   -4.0606   -1.2243   -0.5506 H   0  0  0  0  0  0  0  0  0  0  0  0
   -4.0848   -0.6624    1.1207 H   0  0  0  0  0  0  0  0  0  0  0  0
   -2.7244    0.7815   -1.2046 H   0  0  0  0  0  0  0  0  0  0  0  0
   -2.7477    1.3419    0.4663 H   0  0  0  0  0  0  0  0  0  0  0  0
   -1.5226   -0.7132    1.1734 H   0  0  0  0  0  0  0  0  0  0  0  0
   -1.4992   -1.2740   -0.4993 H   0  0  0  0  0  0  0  0  0  0  0  0
   -0.1609    0.7345   -1.1573 H   0  0  0  0  0  0  0  0  0  0  0  0
   -0.1831    1.2963    0.5224 H   0  0  0  0  0  0  0  0  0  0  0  0
    2.7205   -1.8554    0.6794 H   0  0  0  0  0  0  0  0  0  0  0  0
    3.7830   -0.5112    1.1789 H   0  0  0  0  0  0  0  0  0  0  0  0
    3.8114   -1.0614   -0.4889 H   0  0  0  0  0  0  0  0  0  0  0  0
  1  2  1  0  0  0  0
  2  3  1  0  0  0  0
  3  4  1  0  0  0  0
  4  5  1  0  0  0  0
  5  6  1  0  0  0  0
  6  7  2  0  0  0  0
  6  8  1  0  0  0  0
  1  9  1  0  0  0  0
  1 10  1  0  0  0  0
  1 11  1  0  0  0  0
  2 12  1  0  0  0  0
  2 13  1  0  0  0  0
  3 14  1  0  0  0  0
  3 15  1  0  0  0  0
  4 16  1  0  0  0  0
  4 17  1  0  0  0  0
  8 18  1  0  0  0  0
  8 19  1  0  0  0  0
  8 20  1  0  0  0  0
M  END
