 xtb: 6.7.1 (edcfbbe)
          04112517493D

 26 26  0     0  0            999 V2000
   -2.9537   -1.2948   -1.1968 C   0  0  0  0  0  0  0  0  0  0  0  0
   -3.3945   -0.1734   -0.2648 C   0  0  0  0  0  0  0  0  0  0  0  0
   -2.4828   -0.0480    0.9640 C   0  0  0  0  0  0  0  0  0  0  0  0
   -1.0867    0.3493    0.5761 C   0  0  0  0  0  0  0  0  0  0  0  0
   -0.7938    1.6640    0.2501 C   0  0  0  0  0  0  0  0  0  0  0  0
    0.4815    2.0289   -0.1453 C   0  0  0  0  0  0  0  0  0  0  0  0
    1.4869    1.0810   -0.2221 C   0  0  0  0  0  0  0  0  0  0  0  0
    1.2022   -0.2534    0.1074 C   0  0  0  0  0  0  0  0  0  0  0  0
   -0.0763   -0.6047    0.5016 C   0  0  0  0  0  0  0  0  0  0  0  0
    2.2714   -1.1169    0.0003 O   0  0  0  0  0  0  0  0  0  0  0  0
    2.0650   -2.4797    0.3084 C   0  0  0  0  0  0  0  0  0  0  0  0
    2.7402    1.4522   -0.6131 O   0  0  0  0  0  0  0  0  0  0  0  0
   -3.6228   -1.3635   -2.0510 H   0  0  0  0  0  0  0  0  0  0  0  0
   -1.9463   -1.1091   -1.5626 H   0  0  0  0  0  0  0  0  0  0  0  0
   -2.9629   -2.2495   -0.6756 H   0  0  0  0  0  0  0  0  0  0  0  0
   -4.4155   -0.3628    0.0726 H   0  0  0  0  0  0  0  0  0  0  0  0
   -3.3896    0.7725   -0.8097 H   0  0  0  0  0  0  0  0  0  0  0  0
   -2.4647   -1.0020    1.4932 H   0  0  0  0  0  0  0  0  0  0  0  0
   -2.8999    0.7067    1.6335 H   0  0  0  0  0  0  0  0  0  0  0  0
   -1.5662    2.4156    0.3064 H   0  0  0  0  0  0  0  0  0  0  0  0
    0.7195    3.0494   -0.3993 H   0  0  0  0  0  0  0  0  0  0  0  0
   -0.3046   -1.6274    0.7568 H   0  0  0  0  0  0  0  0  0  0  0  0
    1.3202   -2.9253   -0.3561 H   0  0  0  0  0  0  0  0  0  0  0  0
    1.7563   -2.6057    1.3494 H   0  0  0  0  0  0  0  0  0  0  0  0
    3.0292   -2.9581    0.1516 H   0  0  0  0  0  0  0  0  0  0  0  0
    3.3126    0.6684   -0.6081 H   0  0  0  0  0  0  0  0  0  0  0  0
  1  2  1  0  0  0  0
  2  3  1  0  0  0  0
  3  4  1  0  0  0  0
  4  5  4  0  0  0  0
  5  6  4  0  0  0  0
  6  7  4  0  0  0  0
  7  8  4  0  0  0  0
  4  9  4  0  0  0  0
  8  9  4  0  0  0  0
  8 10  1  0  0  0  0
 10 11  1  0  0  0  0
  7 12  1  0  0  0  0
  1 13  1  0  0  0  0
  1 14  1  0  0  0  0
  1 15  1  0  0  0  0
  2 16  1  0  0  0  0
  2 17  1  0  0  0  0
  3 18  1  0  0  0  0
  3 19  1  0  0  0  0
  5 20  1  0  0  0  0
  6 21  1  0  0  0  0
  9 22  1  0  0  0  0
 11 23  1  0  0  0  0
 11 24  1  0  0  0  0
 11 25  1  0  0  0  0
 12 26  1  0  0  0  0
M  END
