 xtb: 6.7.1 (edcfbbe)
          04112516273D

 20 19  0     0  0            999 V2000
    4.0206    0.0403    0.2651 C   0  0  0  0  0  0  0  0  0  0  0  0
    2.6575    0.3499   -0.2653 C   0  0  0  0  0  0  0  0  0  0  0  0
    2.2705    1.4399   -0.6258 O   0  0  0  0  0  0  0  0  0  0  0  0
    1.8958   -0.7481   -0.3222 O   0  0  0  0  0  0  0  0  0  0  0  0
    0.5782   -0.6256   -0.8492 C   0  0  0  0  0  0  0  0  0  0  0  0
   -0.3873   -0.1148    0.2191 C   0  0  0  0  0  0  0  0  0  0  0  0
   -1.6978   -0.1264   -0.3422 O   0  0  0  0  0  0  0  0  0  0  0  0
   -2.7327   -0.0278    0.4957 C   0  0  0  0  0  0  0  0  0  0  0  0
   -2.5993    0.0547    1.6978 O   0  0  0  0  0  0  0  0  0  0  0  0
   -4.0347   -0.0242   -0.2399 C   0  0  0  0  0  0  0  0  0  0  0  0
    4.4705    0.9412    0.6692 H   0  0  0  0  0  0  0  0  0  0  0  0
    4.6341   -0.3216   -0.5575 H   0  0  0  0  0  0  0  0  0  0  0  0
    3.9556   -0.7406    1.0154 H   0  0  0  0  0  0  0  0  0  0  0  0
    0.5805    0.0650   -1.6979 H   0  0  0  0  0  0  0  0  0  0  0  0
    0.2932   -1.6273   -1.1710 H   0  0  0  0  0  0  0  0  0  0  0  0
   -0.1278    0.9079    0.5148 H   0  0  0  0  0  0  0  0  0  0  0  0
   -0.3631   -0.7536    1.1088 H   0  0  0  0  0  0  0  0  0  0  0  0
   -4.7974   -0.5034    0.3658 H   0  0  0  0  0  0  0  0  0  0  0  0
   -3.9197   -0.5181   -1.1985 H   0  0  0  0  0  0  0  0  0  0  0  0
   -4.3293    1.0099   -0.4072 H   0  0  0  0  0  0  0  0  0  0  0  0
  1  2  1  0  0  0  0
  2  3  2  0  0  0  0
  2  4  1  0  0  0  0
  4  5  1  0  0  0  0
  5  6  1  0  0  0  0
  6  7  1  0  0  0  0
  7  8  1  0  0  0  0
  8  9  2  0  0  0  0
  8 10  1  0  0  0  0
  1 11  1  0  0  0  0
  1 12  1  0  0  0  0
  1 13  1  0  0  0  0
  5 14  1  0  0  0  0
  5 15  1  0  0  0  0
  6 16  1  0  0  0  0
  6 17  1  0  0  0  0
 10 18  1  0  0  0  0
 10 19  1  0  0  0  0
 10 20  1  0  0  0  0
M  END
