 xtb: 6.7.1 (edcfbbe)
          04112516133D

 13 13  0     0  0            999 V2000
    1.9542    0.3896   -0.9932 C   0  0  0  0  0  0  0  0  0  0  0  0
    1.5760   -0.2201    0.3123 C   0  0  0  0  0  0  0  0  0  0  0  0
    2.1553   -1.1473    0.8281 O   0  0  0  0  0  0  0  0  0  0  0  0
    0.4173    0.4593    1.0514 C   0  0  0  0  0  0  0  0  0  0  0  0
   -0.5900    0.9684    0.1944 O   0  0  0  0  0  0  0  0  0  0  0  0
   -1.4896    0.0641   -0.3032 N   0  0  0  0  0  0  0  0  0  0  0  0
   -1.3654   -1.0733    0.0245 O   0  0  0  0  0  0  0  0  0  0  0  0
   -2.3005    0.5490   -1.0245 O   0  0  0  0  0  0  0  0  0  0  0  0
    1.0908    0.7615   -1.5363 H   0  0  0  0  0  0  0  0  0  0  0  0
    2.6002    1.2409   -0.7791 H   0  0  0  0  0  0  0  0  0  0  0  0
    2.5141   -0.3221   -1.5927 H   0  0  0  0  0  0  0  0  0  0  0  0
    0.8042    1.3402    1.5689 H   0  0  0  0  0  0  0  0  0  0  0  0
   -0.0040   -0.2412    1.7787 H   0  0  0  0  0  0  0  0  0  0  0  0
  1  2  1  0  0  0  0
  2  3  2  0  0  0  0
  2  4  1  0  0  0  0
  4  5  1  0  0  0  0
  5  6  1  0  0  0  0
  6  7  4  0  0  0  0
  6  8  4  0  0  0  0
  7  8  1  0  0  0  0
  1  9  1  0  0  0  0
  1 10  1  0  0  0  0
  1 11  1  0  0  0  0
  4 12  1  0  0  0  0
  4 13  1  0  0  0  0
M  END
