 xtb: 6.7.1 (edcfbbe)
          04112516153D

 26 25  0     0  0            999 V2000
    1.7116   -0.5115   -1.7113 C   0  0  0  0  0  0  0  0  0  0  0  0
    1.9255   -0.7345   -0.2214 C   0  0  0  0  0  0  0  0  0  0  0  0
    3.1948   -1.5450    0.0236 C   0  0  0  0  0  0  0  0  0  0  0  0
    0.7635   -1.3868    0.4576 C   0  0  0  0  0  0  0  0  0  0  0  0
   -0.4690   -1.1067    0.4702 N   0  0  0  0  0  0  0  0  0  0  0  0
   -0.8755    0.0152   -0.2907 O   0  0  0  0  0  0  0  0  0  0  0  0
   -2.2088    0.3216   -0.2185 C   0  0  0  0  0  0  0  0  0  0  0  0
   -2.5711    1.3046   -0.8413 O   0  0  0  0  0  0  0  0  0  0  0  0
   -2.9599   -0.4835    0.5178 N   0  0  0  0  0  0  0  0  0  0  0  0
   -4.3796   -0.2903    0.7023 C   0  0  0  0  0  0  0  0  0  0  0  0
    2.1780    0.8796    0.7129 S   0  0  0  0  0  0  0  0  0  0  0  0
    1.4523    2.1860   -0.3142 C   0  0  0  0  0  0  0  0  0  0  0  0
    1.6241   -1.4804   -2.1999 H   0  0  0  0  0  0  0  0  0  0  0  0
    0.8072    0.0557   -1.9138 H   0  0  0  0  0  0  0  0  0  0  0  0
    2.5654    0.0122   -2.1341 H   0  0  0  0  0  0  0  0  0  0  0  0
    4.0443   -1.0471   -0.4354 H   0  0  0  0  0  0  0  0  0  0  0  0
    3.0915   -2.5383   -0.4068 H   0  0  0  0  0  0  0  0  0  0  0  0
    3.3871   -1.6334    1.0899 H   0  0  0  0  0  0  0  0  0  0  0  0
    0.9860   -2.2352    1.0926 H   0  0  0  0  0  0  0  0  0  0  0  0
   -2.4979   -1.2544    0.9846 H   0  0  0  0  0  0  0  0  0  0  0  0
   -4.6794    0.5829    0.1263 H   0  0  0  0  0  0  0  0  0  0  0  0
   -4.6002   -0.1249    1.7559 H   0  0  0  0  0  0  0  0  0  0  0  0
   -4.9224   -1.1652    0.3481 H   0  0  0  0  0  0  0  0  0  0  0  0
    0.3986    1.9948   -0.4906 H   0  0  0  0  0  0  0  0  0  0  0  0
    1.9993    2.2705   -1.2470 H   0  0  0  0  0  0  0  0  0  0  0  0
    1.5705    3.0927    0.2711 H   0  0  0  0  0  0  0  0  0  0  0  0
  1  2  1  0  0  0  0
  2  3  1  0  0  0  0
  2  4  1  0  0  0  0
  4  5  2  0  0  0  0
  5  6  1  0  0  0  0
  6  7  1  0  0  0  0
  7  8  2  0  0  0  0
  7  9  4  0  0  0  0
  9 10  1  0  0  0  0
  2 11  1  0  0  0  0
 11 12  1  0  0  0  0
  1 13  1  0  0  0  0
  1 14  1  0  0  0  0
  1 15  1  0  0  0  0
  3 16  1  0  0  0  0
  3 17  1  0  0  0  0
  3 18  1  0  0  0  0
  4 19  1  0  0  0  0
  9 20  1  0  0  0  0
 10 21  1  0  0  0  0
 10 22  1  0  0  0  0
 10 23  1  0  0  0  0
 12 24  1  0  0  0  0
 12 25  1  0  0  0  0
 12 26  1  0  0  0  0
M  END
