 xtb: 6.7.1 (edcfbbe)
          04112517153D

 20 19  0     0  0            999 V2000
   -3.2954   -0.8245    0.4068 C   0  0  0  0  0  0  0  0  0  0  0  0
   -1.9053   -0.6210   -0.1835 C   0  0  0  0  0  0  0  0  0  0  0  0
   -1.4965    0.8505   -0.1648 C   0  0  0  0  0  0  0  0  0  0  0  0
   -0.1185    1.0682   -0.7971 C   0  0  0  0  0  0  0  0  0  0  0  0
    0.9594    0.4209    0.0322 C   0  0  0  0  0  0  0  0  0  0  0  0
    1.1349    0.6047    1.2184 O   0  0  0  0  0  0  0  0  0  0  0  0
    1.7181   -0.3934   -0.6945 O   0  0  0  0  0  0  0  0  0  0  0  0
    2.7912   -1.0670   -0.0315 C   0  0  0  0  0  0  0  0  0  0  0  0
   -4.0345   -0.2656   -0.1622 H   0  0  0  0  0  0  0  0  0  0  0  0
   -3.5681   -1.8764    0.3875 H   0  0  0  0  0  0  0  0  0  0  0  0
   -3.3236   -0.4803    1.4381 H   0  0  0  0  0  0  0  0  0  0  0  0
   -1.1780   -1.2027    0.3891 H   0  0  0  0  0  0  0  0  0  0  0  0
   -1.8886   -0.9884   -1.2118 H   0  0  0  0  0  0  0  0  0  0  0  0
   -1.4683    1.2069    0.8669 H   0  0  0  0  0  0  0  0  0  0  0  0
   -2.2341    1.4393   -0.7113 H   0  0  0  0  0  0  0  0  0  0  0  0
    0.0962    2.1375   -0.8353 H   0  0  0  0  0  0  0  0  0  0  0  0
   -0.0777    0.6557   -1.8044 H   0  0  0  0  0  0  0  0  0  0  0  0
    3.2761   -1.6679   -0.7941 H   0  0  0  0  0  0  0  0  0  0  0  0
    2.3992   -1.6929    0.7711 H   0  0  0  0  0  0  0  0  0  0  0  0
    3.4826   -0.3383    0.3934 H   0  0  0  0  0  0  0  0  0  0  0  0
  1  2  1  0  0  0  0
  2  3  1  0  0  0  0
  3  4  1  0  0  0  0
  4  5  1  0  0  0  0
  5  6  2  0  0  0  0
  5  7  1  0  0  0  0
  7  8  1  0  0  0  0
  1  9  1  0  0  0  0
  1 10  1  0  0  0  0
  1 11  1  0  0  0  0
  2 12  1  0  0  0  0
  2 13  1  0  0  0  0
  3 14  1  0  0  0  0
  3 15  1  0  0  0  0
  4 16  1  0  0  0  0
  4 17  1  0  0  0  0
  8 18  1  0  0  0  0
  8 19  1  0  0  0  0
  8 20  1  0  0  0  0
M  END
