 xtb: 6.7.1 (edcfbbe)
          04112514053D

 17 16  0     0  0            999 V2000
   -1.7223   -1.5382   -0.7289 C   0  0  0  0  0  0  0  0  0  0  0  0
   -1.5175   -0.1037   -0.2466 C   0  0  0  0  0  0  0  0  0  0  0  0
   -2.8478    0.5348    0.1454 C   0  0  0  0  0  0  0  0  0  0  0  0
   -0.5260   -0.0587    0.9339 C   0  0  0  0  0  0  0  0  0  0  0  0
    0.6042    0.7761    0.6669 O   0  0  0  0  0  0  0  0  0  0  0  0
    1.6116    0.2477   -0.0660 N   0  0  0  0  0  0  0  0  0  0  0  0
    1.5134   -0.8837   -0.4290 O   0  0  0  0  0  0  0  0  0  0  0  0
    2.5133    1.0040   -0.2643 O   0  0  0  0  0  0  0  0  0  0  0  0
   -2.3879   -1.5525   -1.5874 H   0  0  0  0  0  0  0  0  0  0  0  0
   -2.1650   -2.1412    0.0597 H   0  0  0  0  0  0  0  0  0  0  0  0
   -0.7740   -1.9835   -1.0211 H   0  0  0  0  0  0  0  0  0  0  0  0
   -1.0849    0.4813   -1.0657 H   0  0  0  0  0  0  0  0  0  0  0  0
   -2.7004    1.5634    0.4633 H   0  0  0  0  0  0  0  0  0  0  0  0
   -3.3094   -0.0227    0.9562 H   0  0  0  0  0  0  0  0  0  0  0  0
   -3.5268    0.5318   -0.7029 H   0  0  0  0  0  0  0  0  0  0  0  0
   -0.9722    0.4061    1.8121 H   0  0  0  0  0  0  0  0  0  0  0  0
   -0.1733   -1.0620    1.1856 H   0  0  0  0  0  0  0  0  0  0  0  0
  1  2  1  0  0  0  0
  2  3  1  0  0  0  0
  2  4  1  0  0  0  0
  4  5  1  0  0  0  0
  5  6  1  0  0  0  0
  6  7  4  0  0  0  0
  6  8  4  0  0  0  0
  1  9  1  0  0  0  0
  1 10  1  0  0  0  0
  1 11  1  0  0  0  0
  2 12  1  0  0  0  0
  3 13  1  0  0  0  0
  3 14  1  0  0  0  0
  3 15  1  0  0  0  0
  4 16  1  0  0  0  0
  4 17  1  0  0  0  0
M  END
