 xtb: 6.7.1 (edcfbbe)
          04112516093D

 19 18  0     0  0            999 V2000
    1.7852   -0.3353   -1.1484 C   0  0  0  0  0  0  0  0  0  0  0  0
    2.0911    0.3547    0.1752 C   0  0  0  0  0  0  0  0  0  0  0  0
    0.9962    0.1572    1.2237 C   0  0  0  0  0  0  0  0  0  0  0  0
   -0.3400    0.7804    0.8140 C   0  0  0  0  0  0  0  0  0  0  0  0
   -1.1983   -0.1296   -0.0323 C   0  0  0  0  0  0  0  0  0  0  0  0
   -1.1360   -1.3414    0.0316 O   0  0  0  0  0  0  0  0  0  0  0  0
   -2.1753    0.5792   -0.9276 C   0  0  0  0  0  0  0  0  0  0  0  0
    0.9163    0.1073   -1.6295 H   0  0  0  0  0  0  0  0  0  0  0  0
    2.6310   -0.2485   -1.8263 H   0  0  0  0  0  0  0  0  0  0  0  0
    1.5761   -1.3910   -0.9877 H   0  0  0  0  0  0  0  0  0  0  0  0
    2.2370    1.4236    0.0020 H   0  0  0  0  0  0  0  0  0  0  0  0
    3.0252   -0.0458    0.5748 H   0  0  0  0  0  0  0  0  0  0  0  0
    1.3299    0.6026    2.1622 H   0  0  0  0  0  0  0  0  0  0  0  0
    0.8416   -0.9112    1.3920 H   0  0  0  0  0  0  0  0  0  0  0  0
   -0.9331    0.9787    1.7113 H   0  0  0  0  0  0  0  0  0  0  0  0
   -0.1865    1.7308    0.3036 H   0  0  0  0  0  0  0  0  0  0  0  0
   -2.8651   -0.1322   -1.3732 H   0  0  0  0  0  0  0  0  0  0  0  0
   -2.7214    1.3280   -0.3607 H   0  0  0  0  0  0  0  0  0  0  0  0
   -1.6289    1.0898   -1.7177 H   0  0  0  0  0  0  0  0  0  0  0  0
  1  2  1  0  0  0  0
  2  3  1  0  0  0  0
  3  4  1  0  0  0  0
  4  5  1  0  0  0  0
  5  6  2  0  0  0  0
  5  7  1  0  0  0  0
  1  8  1  0  0  0  0
  1  9  1  0  0  0  0
  1 10  1  0  0  0  0
  2 11  1  0  0  0  0
  2 12  1  0  0  0  0
  3 13  1  0  0  0  0
  3 14  1  0  0  0  0
  4 15  1  0  0  0  0
  4 16  1  0  0  0  0
  7 17  1  0  0  0  0
  7 18  1  0  0  0  0
  7 19  1  0  0  0  0
M  END
