 xtb: 6.7.1 (edcfbbe)
          04112516113D

 17 16  0     0  0            999 V2000
   -3.1252   -0.6070    0.6679 C   0  0  0  0  0  0  0  0  0  0  0  0
   -2.2368   -0.3644   -0.5472 C   0  0  0  0  0  0  0  0  0  0  0  0
   -1.7855    1.0934   -0.6709 C   0  0  0  0  0  0  0  0  0  0  0  0
   -0.7514    1.5415    0.3693 C   0  0  0  0  0  0  0  0  0  0  0  0
    0.6947    1.3437   -0.0472 C   0  0  0  0  0  0  0  0  0  0  0  0
    1.3078   -0.5341    0.0328 Br  0  0  0  0  0  0  0  0  0  0  0  0
   -3.9974    0.0424    0.6378 H   0  0  0  0  0  0  0  0  0  0  0  0
   -2.5892   -0.4190    1.5949 H   0  0  0  0  0  0  0  0  0  0  0  0
   -3.4652   -1.6395    0.6822 H   0  0  0  0  0  0  0  0  0  0  0  0
   -1.3733   -1.0275   -0.5020 H   0  0  0  0  0  0  0  0  0  0  0  0
   -2.7984   -0.6235   -1.4474 H   0  0  0  0  0  0  0  0  0  0  0  0
   -1.3748    1.2562   -1.6701 H   0  0  0  0  0  0  0  0  0  0  0  0
   -2.6692    1.7276   -0.5762 H   0  0  0  0  0  0  0  0  0  0  0  0
   -0.8653    2.6157    0.5354 H   0  0  0  0  0  0  0  0  0  0  0  0
   -0.9330    1.0422    1.3217 H   0  0  0  0  0  0  0  0  0  0  0  0
    1.3714    1.8743    0.6204 H   0  0  0  0  0  0  0  0  0  0  0  0
    0.8665    1.6570   -1.0756 H   0  0  0  0  0  0  0  0  0  0  0  0
  1  2  1  0  0  0  0
  2  3  1  0  0  0  0
  3  4  1  0  0  0  0
  4  5  1  0  0  0  0
  5  6  1  0  0  0  0
  1  7  1  0  0  0  0
  1  8  1  0  0  0  0
  1  9  1  0  0  0  0
  2 10  1  0  0  0  0
  2 11  1  0  0  0  0
  3 12  1  0  0  0  0
  3 13  1  0  0  0  0
  4 14  1  0  0  0  0
  4 15  1  0  0  0  0
  5 16  1  0  0  0  0
  5 17  1  0  0  0  0
M  END
