 xtb: 6.7.1 (edcfbbe)
          04112514233D

 23 22  0     0  0            999 V2000
    1.5810    1.5156    0.1009 C   0  0  0  0  0  0  0  0  0  0  0  0
    1.9433    0.1122   -0.3805 C   0  0  0  0  0  0  0  0  0  0  0  0
    3.4633   -0.0367   -0.4429 C   0  0  0  0  0  0  0  0  0  0  0  0
    1.3480   -0.9689    0.5335 C   0  0  0  0  0  0  0  0  0  0  0  0
   -0.1121   -1.2995    0.2470 C   0  0  0  0  0  0  0  0  0  0  0  0
   -0.9687   -0.2250    0.6604 O   0  0  0  0  0  0  0  0  0  0  0  0
   -2.0201    0.0845   -0.0857 C   0  0  0  0  0  0  0  0  0  0  0  0
   -2.3167   -0.5018   -1.1078 O   0  0  0  0  0  0  0  0  0  0  0  0
   -2.7768    1.2481    0.4826 C   0  0  0  0  0  0  0  0  0  0  0  0
    1.9704    2.2634   -0.5860 H   0  0  0  0  0  0  0  0  0  0  0  0
    2.0090    1.6964    1.0845 H   0  0  0  0  0  0  0  0  0  0  0  0
    0.5042    1.6386    0.1683 H   0  0  0  0  0  0  0  0  0  0  0  0
    1.5401   -0.0273   -1.3904 H   0  0  0  0  0  0  0  0  0  0  0  0
    3.7400   -1.0046   -0.8531 H   0  0  0  0  0  0  0  0  0  0  0  0
    3.8915    0.0531    0.5526 H   0  0  0  0  0  0  0  0  0  0  0  0
    3.8935    0.7378   -1.0729 H   0  0  0  0  0  0  0  0  0  0  0  0
    1.4405   -0.6596    1.5750 H   0  0  0  0  0  0  0  0  0  0  0  0
    1.9071   -1.8959    0.4010 H   0  0  0  0  0  0  0  0  0  0  0  0
   -0.2796   -1.4860   -0.8191 H   0  0  0  0  0  0  0  0  0  0  0  0
   -0.4170   -2.1858    0.8121 H   0  0  0  0  0  0  0  0  0  0  0  0
   -2.6069    2.1151   -0.1523 H   0  0  0  0  0  0  0  0  0  0  0  0
   -2.4353    1.4570    1.4906 H   0  0  0  0  0  0  0  0  0  0  0  0
   -3.8401    1.0270    0.4687 H   0  0  0  0  0  0  0  0  0  0  0  0
  1  2  1  0  0  0  0
  2  3  1  0  0  0  0
  2  4  1  0  0  0  0
  4  5  1  0  0  0  0
  5  6  1  0  0  0  0
  6  7  1  0  0  0  0
  7  8  2  0  0  0  0
  7  9  1  0  0  0  0
  1 10  1  0  0  0  0
  1 11  1  0  0  0  0
  1 12  1  0  0  0  0
  2 13  1  0  0  0  0
  3 14  1  0  0  0  0
  3 15  1  0  0  0  0
  3 16  1  0  0  0  0
  4 17  1  0  0  0  0
  4 18  1  0  0  0  0
  5 19  1  0  0  0  0
  5 20  1  0  0  0  0
  9 21  1  0  0  0  0
  9 22  1  0  0  0  0
  9 23  1  0  0  0  0
M  END
