 xtb: 6.7.1 (edcfbbe)
          04112514233D

 18 17  0     0  0            999 V2000
    2.8718    0.0838    0.2732 C   0  0  0  0  0  0  0  0  0  0  0  0
    1.4911    0.5479   -0.1793 C   0  0  0  0  0  0  0  0  0  0  0  0
    0.5477   -0.6320   -0.4707 C   0  0  0  0  0  0  0  0  0  0  0  0
   -0.6851   -0.6647    0.4425 C   0  0  0  0  0  0  0  0  0  0  0  0
   -1.6447    0.4376    0.1255 C   0  0  0  0  0  0  0  0  0  0  0  0
   -2.9098    0.2547   -0.2033 C   0  0  0  0  0  0  0  0  0  0  0  0
    3.5114    0.9381    0.4835 H   0  0  0  0  0  0  0  0  0  0  0  0
    3.3459   -0.5167   -0.5002 H   0  0  0  0  0  0  0  0  0  0  0  0
    2.7942   -0.5170    1.1768 H   0  0  0  0  0  0  0  0  0  0  0  0
    1.0637    1.1777    0.6027 H   0  0  0  0  0  0  0  0  0  0  0  0
    1.6006    1.1683   -1.0705 H   0  0  0  0  0  0  0  0  0  0  0  0
    0.2084   -0.5978   -1.5076 H   0  0  0  0  0  0  0  0  0  0  0  0
    1.0945   -1.5674   -0.3394 H   0  0  0  0  0  0  0  0  0  0  0  0
   -1.1919   -1.6255    0.3335 H   0  0  0  0  0  0  0  0  0  0  0  0
   -0.3568   -0.5710    1.4816 H   0  0  0  0  0  0  0  0  0  0  0  0
   -1.2376    1.4394    0.1667 H   0  0  0  0  0  0  0  0  0  0  0  0
   -3.5676    1.0769   -0.4287 H   0  0  0  0  0  0  0  0  0  0  0  0
   -3.3443   -0.7305   -0.2555 H   0  0  0  0  0  0  0  0  0  0  0  0
  1  2  1  0  0  0  0
  2  3  1  0  0  0  0
  3  4  1  0  0  0  0
  4  5  1  0  0  0  0
  5  6  2  0  0  0  0
  1  7  1  0  0  0  0
  1  8  1  0  0  0  0
  1  9  1  0  0  0  0
  2 10  1  0  0  0  0
  2 11  1  0  0  0  0
  3 12  1  0  0  0  0
  3 13  1  0  0  0  0
  4 14  1  0  0  0  0
  4 15  1  0  0  0  0
  5 16  1  0  0  0  0
  6 17  1  0  0  0  0
  6 18  1  0  0  0  0
M  END
