 xtb: 6.7.1 (edcfbbe)
          04112516153D

 26 25  0     0  0            999 V2000
    2.9452   -0.9460   -0.5305 C   0  0  0  0  0  0  0  0  0  0  0  0
    1.5556   -0.4493   -0.1550 C   0  0  0  0  0  0  0  0  0  0  0  0
    0.8788   -1.4308    0.7934 C   0  0  0  0  0  0  0  0  0  0  0  0
    0.7904   -0.0528   -1.3716 C   0  0  0  0  0  0  0  0  0  0  0  0
   -0.4033   -0.1755   -1.7650 N   0  0  0  0  0  0  0  0  0  0  0  0
   -1.3296   -0.9186   -0.9787 O   0  0  0  0  0  0  0  0  0  0  0  0
   -2.0349   -0.2121   -0.0507 C   0  0  0  0  0  0  0  0  0  0  0  0
   -1.7770    0.9331    0.2672 O   0  0  0  0  0  0  0  0  0  0  0  0
   -3.0049   -0.9799    0.4498 N   0  0  0  0  0  0  0  0  0  0  0  0
   -3.9099   -0.5283    1.4832 C   0  0  0  0  0  0  0  0  0  0  0  0
    1.6286    1.1779    0.7769 S   0  0  0  0  0  0  0  0  0  0  0  0
    2.9241    2.1293   -0.0782 C   0  0  0  0  0  0  0  0  0  0  0  0
    3.4156   -0.3068   -1.2720 H   0  0  0  0  0  0  0  0  0  0  0  0
    3.5725   -0.9895    0.3564 H   0  0  0  0  0  0  0  0  0  0  0  0
    2.8593   -1.9480   -0.9458 H   0  0  0  0  0  0  0  0  0  0  0  0
    0.0110   -0.9776    1.2691 H   0  0  0  0  0  0  0  0  0  0  0  0
    1.5790   -1.7138    1.5753 H   0  0  0  0  0  0  0  0  0  0  0  0
    0.5638   -2.3209    0.2527 H   0  0  0  0  0  0  0  0  0  0  0  0
    1.3695    0.5035   -2.1018 H   0  0  0  0  0  0  0  0  0  0  0  0
   -3.1158   -1.9096    0.0750 H   0  0  0  0  0  0  0  0  0  0  0  0
   -3.8253   -1.1681    2.3606 H   0  0  0  0  0  0  0  0  0  0  0  0
   -4.9355   -0.5413    1.1171 H   0  0  0  0  0  0  0  0  0  0  0  0
   -3.6324    0.4901    1.7475 H   0  0  0  0  0  0  0  0  0  0  0  0
    2.6506    2.2939   -1.1146 H   0  0  0  0  0  0  0  0  0  0  0  0
    3.8796    1.6261    0.0136 H   0  0  0  0  0  0  0  0  0  0  0  0
    2.9537    3.0787    0.4463 H   0  0  0  0  0  0  0  0  0  0  0  0
  1  2  1  0  0  0  0
  2  3  1  0  0  0  0
  2  4  1  0  0  0  0
  4  5  2  0  0  0  0
  5  6  1  0  0  0  0
  6  7  1  0  0  0  0
  7  8  2  0  0  0  0
  7  9  4  0  0  0  0
  9 10  1  0  0  0  0
  2 11  1  0  0  0  0
 11 12  1  0  0  0  0
  1 13  1  0  0  0  0
  1 14  1  0  0  0  0
  1 15  1  0  0  0  0
  3 16  1  0  0  0  0
  3 17  1  0  0  0  0
  3 18  1  0  0  0  0
  4 19  1  0  0  0  0
  9 20  1  0  0  0  0
 10 21  1  0  0  0  0
 10 22  1  0  0  0  0
 10 23  1  0  0  0  0
 12 24  1  0  0  0  0
 12 25  1  0  0  0  0
 12 26  1  0  0  0  0
M  END
