 xtb: 6.7.1 (edcfbbe)
          04112516293D

 20 19  0     0  0            999 V2000
   -3.6356   -0.7322    0.0184 C   0  0  0  0  0  0  0  0  0  0  0  0
   -2.2092   -0.3986   -0.4011 C   0  0  0  0  0  0  0  0  0  0  0  0
   -1.6090    0.6999    0.4751 C   0  0  0  0  0  0  0  0  0  0  0  0
   -0.1818    1.0387    0.0727 C   0  0  0  0  0  0  0  0  0  0  0  0
    0.6523   -0.0967    0.3462 O   0  0  0  0  0  0  0  0  0  0  0  0
    1.9174   -0.0436   -0.0485 C   0  0  0  0  0  0  0  0  0  0  0  0
    2.3942    0.9197   -0.6153 O   0  0  0  0  0  0  0  0  0  0  0  0
    2.6574   -1.3057    0.2766 C   0  0  0  0  0  0  0  0  0  0  0  0
   -4.2711    0.1465   -0.0621 H   0  0  0  0  0  0  0  0  0  0  0  0
   -4.0457   -1.5129   -0.6167 H   0  0  0  0  0  0  0  0  0  0  0  0
   -3.6586   -1.0791    1.0485 H   0  0  0  0  0  0  0  0  0  0  0  0
   -1.5861   -1.2914   -0.3266 H   0  0  0  0  0  0  0  0  0  0  0  0
   -2.2025   -0.0715   -1.4431 H   0  0  0  0  0  0  0  0  0  0  0  0
   -2.2080    1.6073    0.3943 H   0  0  0  0  0  0  0  0  0  0  0  0
   -1.6099    0.3769    1.5168 H   0  0  0  0  0  0  0  0  0  0  0  0
   -0.1078    1.2767   -0.9939 H   0  0  0  0  0  0  0  0  0  0  0  0
    0.2031    1.8929    0.6396 H   0  0  0  0  0  0  0  0  0  0  0  0
    3.6750   -1.0653    0.5686 H   0  0  0  0  0  0  0  0  0  0  0  0
    2.6972   -1.9205   -0.6202 H   0  0  0  0  0  0  0  0  0  0  0  0
    2.1395   -1.8471    1.0606 H   0  0  0  0  0  0  0  0  0  0  0  0
  1  2  1  0  0  0  0
  2  3  1  0  0  0  0
  3  4  1  0  0  0  0
  4  5  1  0  0  0  0
  5  6  1  0  0  0  0
  6  7  2  0  0  0  0
  6  8  1  0  0  0  0
  1  9  1  0  0  0  0
  1 10  1  0  0  0  0
  1 11  1  0  0  0  0
  2 12  1  0  0  0  0
  2 13  1  0  0  0  0
  3 14  1  0  0  0  0
  3 15  1  0  0  0  0
  4 16  1  0  0  0  0
  4 17  1  0  0  0  0
  8 18  1  0  0  0  0
  8 19  1  0  0  0  0
  8 20  1  0  0  0  0
M  END
