 xtb: 6.7.1 (edcfbbe)
          04112516113D

 20 19  0     0  0            999 V2000
    2.8496   -0.8258   -1.1919 C   0  0  0  0  0  0  0  0  0  0  0  0
    1.7429   -0.4662   -0.2507 C   0  0  0  0  0  0  0  0  0  0  0  0
    1.0018   -1.2592    0.2917 O   0  0  0  0  0  0  0  0  0  0  0  0
    1.6803    0.8514   -0.0574 O   0  0  0  0  0  0  0  0  0  0  0  0
    0.6629    1.3750    0.7976 C   0  0  0  0  0  0  0  0  0  0  0  0
   -0.5954    1.7096   -0.0033 C   0  0  0  0  0  0  0  0  0  0  0  0
   -1.1568    0.5365   -0.5982 O   0  0  0  0  0  0  0  0  0  0  0  0
   -1.8432   -0.2956    0.1895 C   0  0  0  0  0  0  0  0  0  0  0  0
   -2.0802   -0.0538    1.3532 O   0  0  0  0  0  0  0  0  0  0  0  0
   -2.2596   -1.5282   -0.5462 C   0  0  0  0  0  0  0  0  0  0  0  0
    3.6584   -1.2737   -0.6187 H   0  0  0  0  0  0  0  0  0  0  0  0
    3.2083    0.0632   -1.6985 H   0  0  0  0  0  0  0  0  0  0  0  0
    2.4930   -1.5657   -1.9025 H   0  0  0  0  0  0  0  0  0  0  0  0
    0.4251    0.6408    1.5742 H   0  0  0  0  0  0  0  0  0  0  0  0
    1.0770    2.2818    1.2369 H   0  0  0  0  0  0  0  0  0  0  0  0
   -0.3573    2.3622   -0.8431 H   0  0  0  0  0  0  0  0  0  0  0  0
   -1.3301    2.1690    0.6638 H   0  0  0  0  0  0  0  0  0  0  0  0
   -2.4155   -1.3028   -1.5958 H   0  0  0  0  0  0  0  0  0  0  0  0
   -3.1488   -1.9497   -0.0895 H   0  0  0  0  0  0  0  0  0  0  0  0
   -1.4424   -2.2433   -0.4567 H   0  0  0  0  0  0  0  0  0  0  0  0
  1  2  1  0  0  0  0
  2  3  2  0  0  0  0
  2  4  1  0  0  0  0
  4  5  1  0  0  0  0
  5  6  1  0  0  0  0
  6  7  1  0  0  0  0
  7  8  1  0  0  0  0
  8  9  2  0  0  0  0
  8 10  1  0  0  0  0
  1 11  1  0  0  0  0
  1 12  1  0  0  0  0
  1 13  1  0  0  0  0
  5 14  1  0  0  0  0
  5 15  1  0  0  0  0
  6 16  1  0  0  0  0
  6 17  1  0  0  0  0
 10 18  1  0  0  0  0
 10 19  1  0  0  0  0
 10 20  1  0  0  0  0
M  END
