 xtb: 6.7.1 (edcfbbe)
          04112516013D

 20 19  0     0  0            999 V2000
   -2.4078   -1.2927    0.2496 C   0  0  0  0  0  0  0  0  0  0  0  0
   -2.7045    0.2018    0.2335 C   0  0  0  0  0  0  0  0  0  0  0  0
   -1.6185    1.0229   -0.4632 C   0  0  0  0  0  0  0  0  0  0  0  0
   -0.2904    1.0493    0.2866 C   0  0  0  0  0  0  0  0  0  0  0  0
    0.4285   -0.1743    0.0714 O   0  0  0  0  0  0  0  0  0  0  0  0
    1.7452   -0.1289   -0.0761 C   0  0  0  0  0  0  0  0  0  0  0  0
    2.3924    0.8985   -0.0324 O   0  0  0  0  0  0  0  0  0  0  0  0
    2.3233   -1.4963   -0.2867 C   0  0  0  0  0  0  0  0  0  0  0  0
   -3.2177   -1.8323    0.7345 H   0  0  0  0  0  0  0  0  0  0  0  0
   -2.3025   -1.6687   -0.7654 H   0  0  0  0  0  0  0  0  0  0  0  0
   -1.4856   -1.4960    0.7857 H   0  0  0  0  0  0  0  0  0  0  0  0
   -3.6488    0.3722   -0.2872 H   0  0  0  0  0  0  0  0  0  0  0  0
   -2.8215    0.5614    1.2578 H   0  0  0  0  0  0  0  0  0  0  0  0
   -1.4452    0.6293   -1.4660 H   0  0  0  0  0  0  0  0  0  0  0  0
   -1.9595    2.0546   -0.5566 H   0  0  0  0  0  0  0  0  0  0  0  0
    0.3405    1.8753   -0.0585 H   0  0  0  0  0  0  0  0  0  0  0  0
   -0.4513    1.1556    1.3638 H   0  0  0  0  0  0  0  0  0  0  0  0
    2.5963   -1.9057    0.6838 H   0  0  0  0  0  0  0  0  0  0  0  0
    3.2196   -1.4224   -0.8942 H   0  0  0  0  0  0  0  0  0  0  0  0
    1.5860   -2.1448   -0.7476 H   0  0  0  0  0  0  0  0  0  0  0  0
  1  2  1  0  0  0  0
  2  3  1  0  0  0  0
  3  4  1  0  0  0  0
  4  5  1  0  0  0  0
  5  6  1  0  0  0  0
  6  7  2  0  0  0  0
  6  8  1  0  0  0  0
  1  9  1  0  0  0  0
  1 10  1  0  0  0  0
  1 11  1  0  0  0  0
  2 12  1  0  0  0  0
  2 13  1  0  0  0  0
  3 14  1  0  0  0  0
  3 15  1  0  0  0  0
  4 16  1  0  0  0  0
  4 17  1  0  0  0  0
  8 18  1  0  0  0  0
  8 19  1  0  0  0  0
  8 20  1  0  0  0  0
M  END
