 xtb: 6.7.1 (edcfbbe)
          04112516333D

 17 16  0     0  0            999 V2000
   -4.4255   -0.8684    0.2400 C   0  0  0  0  0  0  0  0  0  0  0  0
   -2.9505   -0.8073   -0.1408 C   0  0  0  0  0  0  0  0  0  0  0  0
   -2.3389    0.5449    0.2235 C   0  0  0  0  0  0  0  0  0  0  0  0
   -0.8995    0.7193   -0.2671 C   0  0  0  0  0  0  0  0  0  0  0  0
    0.0569   -0.2044    0.4622 C   0  0  0  0  0  0  0  0  0  0  0  0
    1.9214    0.1234   -0.0959 Br  0  0  0  0  0  0  0  0  0  0  0  0
   -4.8461   -1.8368   -0.0183 H   0  0  0  0  0  0  0  0  0  0  0  0
   -4.9871   -0.0987   -0.2842 H   0  0  0  0  0  0  0  0  0  0  0  0
   -4.5491   -0.7140    1.3094 H   0  0  0  0  0  0  0  0  0  0  0  0
   -2.4185   -1.6093    0.3739 H   0  0  0  0  0  0  0  0  0  0  0  0
   -2.8474   -0.9721   -1.2155 H   0  0  0  0  0  0  0  0  0  0  0  0
   -2.9448    1.3340   -0.2256 H   0  0  0  0  0  0  0  0  0  0  0  0
   -2.3721    0.6789    1.3069 H   0  0  0  0  0  0  0  0  0  0  0  0
   -0.8503    0.5231   -1.3405 H   0  0  0  0  0  0  0  0  0  0  0  0
   -0.5904    1.7539   -0.1020 H   0  0  0  0  0  0  0  0  0  0  0  0
   -0.1273   -1.2530    0.2405 H   0  0  0  0  0  0  0  0  0  0  0  0
    0.0403   -0.0387    1.5381 H   0  0  0  0  0  0  0  0  0  0  0  0
  1  2  1  0  0  0  0
  2  3  1  0  0  0  0
  3  4  1  0  0  0  0
  4  5  1  0  0  0  0
  5  6  1  0  0  0  0
  1  7  1  0  0  0  0
  1  8  1  0  0  0  0
  1  9  1  0  0  0  0
  2 10  1  0  0  0  0
  2 11  1  0  0  0  0
  3 12  1  0  0  0  0
  3 13  1  0  0  0  0
  4 14  1  0  0  0  0
  4 15  1  0  0  0  0
  5 16  1  0  0  0  0
  5 17  1  0  0  0  0
M  END
