 xtb: 6.7.1 (edcfbbe)
          04112514233D

 18 17  0     0  0            999 V2000
    2.3504    0.3450   -0.6486 C   0  0  0  0  0  0  0  0  0  0  0  0
    1.5244    0.3315    0.6330 C   0  0  0  0  0  0  0  0  0  0  0  0
    0.5112   -0.8130    0.6888 C   0  0  0  0  0  0  0  0  0  0  0  0
   -0.5679   -0.7718   -0.4035 C   0  0  0  0  0  0  0  0  0  0  0  0
   -1.4171    0.4566   -0.3232 C   0  0  0  0  0  0  0  0  0  0  0  0
   -2.6769    0.4648    0.0708 C   0  0  0  0  0  0  0  0  0  0  0  0
    1.7292    0.5616   -1.5137 H   0  0  0  0  0  0  0  0  0  0  0  0
    2.8310   -0.6191   -0.8008 H   0  0  0  0  0  0  0  0  0  0  0  0
    3.1231    1.1079   -0.5893 H   0  0  0  0  0  0  0  0  0  0  0  0
    2.1995    0.2252    1.4858 H   0  0  0  0  0  0  0  0  0  0  0  0
    1.0073    1.2858    0.7456 H   0  0  0  0  0  0  0  0  0  0  0  0
    1.0469   -1.7618    0.6058 H   0  0  0  0  0  0  0  0  0  0  0  0
    0.0165   -0.7939    1.6629 H   0  0  0  0  0  0  0  0  0  0  0  0
   -0.0898   -0.8183   -1.3838 H   0  0  0  0  0  0  0  0  0  0  0  0
   -1.2002   -1.6552   -0.2930 H   0  0  0  0  0  0  0  0  0  0  0  0
   -0.9350    1.3831   -0.6056 H   0  0  0  0  0  0  0  0  0  0  0  0
   -3.2554    1.3715    0.1234 H   0  0  0  0  0  0  0  0  0  0  0  0
   -3.1860   -0.4419    0.3553 H   0  0  0  0  0  0  0  0  0  0  0  0
  1  2  1  0  0  0  0
  2  3  1  0  0  0  0
  3  4  1  0  0  0  0
  4  5  1  0  0  0  0
  5  6  2  0  0  0  0
  1  7  1  0  0  0  0
  1  8  1  0  0  0  0
  1  9  1  0  0  0  0
  2 10  1  0  0  0  0
  2 11  1  0  0  0  0
  3 12  1  0  0  0  0
  3 13  1  0  0  0  0
  4 14  1  0  0  0  0
  4 15  1  0  0  0  0
  5 16  1  0  0  0  0
  6 17  1  0  0  0  0
  6 18  1  0  0  0  0
M  END
