 xtb: 6.7.1 (edcfbbe)
          04112516153D

 26 25  0     0  0            999 V2000
    1.1416    0.0384   -1.5460 C   0  0  0  0  0  0  0  0  0  0  0  0
    1.6515   -0.3164   -0.1537 C   0  0  0  0  0  0  0  0  0  0  0  0
    1.8202   -1.8310   -0.0002 C   0  0  0  0  0  0  0  0  0  0  0  0
    0.7833    0.1737    0.9675 C   0  0  0  0  0  0  0  0  0  0  0  0
   -0.4686    0.1962    1.1039 N   0  0  0  0  0  0  0  0  0  0  0  0
   -1.2460   -0.3047    0.0431 O   0  0  0  0  0  0  0  0  0  0  0  0
   -2.6020   -0.1335    0.2270 C   0  0  0  0  0  0  0  0  0  0  0  0
   -3.0906    0.4647    1.1593 O   0  0  0  0  0  0  0  0  0  0  0  0
   -3.2542   -0.7146   -0.7803 N   0  0  0  0  0  0  0  0  0  0  0  0
   -4.6964   -0.7019   -0.8898 C   0  0  0  0  0  0  0  0  0  0  0  0
    3.3428    0.4104    0.0964 S   0  0  0  0  0  0  0  0  0  0  0  0
    3.0171    2.1832   -0.1331 C   0  0  0  0  0  0  0  0  0  0  0  0
    1.9293   -0.1418   -2.2739 H   0  0  0  0  0  0  0  0  0  0  0  0
    0.2836   -0.5791   -1.7963 H   0  0  0  0  0  0  0  0  0  0  0  0
    0.8396    1.0823   -1.5988 H   0  0  0  0  0  0  0  0  0  0  0  0
    2.4732   -2.2052   -0.7841 H   0  0  0  0  0  0  0  0  0  0  0  0
    0.8507   -2.3187   -0.0744 H   0  0  0  0  0  0  0  0  0  0  0  0
    2.2628   -2.0665    0.9649 H   0  0  0  0  0  0  0  0  0  0  0  0
    1.2924    0.5381    1.8512 H   0  0  0  0  0  0  0  0  0  0  0  0
   -2.7227   -1.1862   -1.4957 H   0  0  0  0  0  0  0  0  0  0  0  0
   -4.9983   -0.2051   -1.8107 H   0  0  0  0  0  0  0  0  0  0  0  0
   -5.0912   -0.1559   -0.0357 H   0  0  0  0  0  0  0  0  0  0  0  0
   -5.0819   -1.7203   -0.8799 H   0  0  0  0  0  0  0  0  0  0  0  0
    2.1409    2.4685    0.4410 H   0  0  0  0  0  0  0  0  0  0  0  0
    2.8831    2.4003   -1.1879 H   0  0  0  0  0  0  0  0  0  0  0  0
    3.8945    2.6982    0.2432 H   0  0  0  0  0  0  0  0  0  0  0  0
  1  2  1  0  0  0  0
  2  3  1  0  0  0  0
  2  4  1  0  0  0  0
  4  5  2  0  0  0  0
  5  6  1  0  0  0  0
  6  7  1  0  0  0  0
  7  8  2  0  0  0  0
  7  9  4  0  0  0  0
  9 10  1  0  0  0  0
  2 11  1  0  0  0  0
 11 12  1  0  0  0  0
  1 13  1  0  0  0  0
  1 14  1  0  0  0  0
  1 15  1  0  0  0  0
  3 16  1  0  0  0  0
  3 17  1  0  0  0  0
  3 18  1  0  0  0  0
  4 19  1  0  0  0  0
  9 20  1  0  0  0  0
 10 21  1  0  0  0  0
 10 22  1  0  0  0  0
 10 23  1  0  0  0  0
 12 24  1  0  0  0  0
 12 25  1  0  0  0  0
 12 26  1  0  0  0  0
M  END
