 xtb: 6.7.1 (edcfbbe)
          04112516153D

 26 25  0     0  0            999 V2000
    3.1210   -1.2162   -0.7677 C   0  0  0  0  0  0  0  0  0  0  0  0
    1.8567   -0.6001   -0.1827 C   0  0  0  0  0  0  0  0  0  0  0  0
    1.8906   -0.5951    1.3434 C   0  0  0  0  0  0  0  0  0  0  0  0
    0.6453   -1.3200   -0.6905 C   0  0  0  0  0  0  0  0  0  0  0  0
   -0.5790   -1.1269   -0.4500 N   0  0  0  0  0  0  0  0  0  0  0  0
   -0.8945   -0.0780    0.4369 O   0  0  0  0  0  0  0  0  0  0  0  0
   -2.2341    0.1556    0.6119 C   0  0  0  0  0  0  0  0  0  0  0  0
   -2.5372    1.0318    1.4016 O   0  0  0  0  0  0  0  0  0  0  0  0
   -3.0610   -0.6012   -0.0962 N   0  0  0  0  0  0  0  0  0  0  0  0
   -4.4987   -0.4783   -0.0266 C   0  0  0  0  0  0  0  0  0  0  0  0
    1.6511    1.1394   -0.8554 S   0  0  0  0  0  0  0  0  0  0  0  0
    2.8807    2.0791    0.0926 C   0  0  0  0  0  0  0  0  0  0  0  0
    3.2106   -2.2511   -0.4451 H   0  0  0  0  0  0  0  0  0  0  0  0
    3.0908   -1.1800   -1.8538 H   0  0  0  0  0  0  0  0  0  0  0  0
    4.0005   -0.6752   -0.4288 H   0  0  0  0  0  0  0  0  0  0  0  0
    1.0559   -0.0279    1.7496 H   0  0  0  0  0  0  0  0  0  0  0  0
    2.8227   -0.1658    1.7001 H   0  0  0  0  0  0  0  0  0  0  0  0
    1.8215   -1.6192    1.7060 H   0  0  0  0  0  0  0  0  0  0  0  0
    0.8048   -2.1330   -1.3867 H   0  0  0  0  0  0  0  0  0  0  0  0
   -2.6507   -1.2922   -0.7119 H   0  0  0  0  0  0  0  0  0  0  0  0
   -4.7358    0.3098    0.6853 H   0  0  0  0  0  0  0  0  0  0  0  0
   -4.9368   -1.4170    0.3090 H   0  0  0  0  0  0  0  0  0  0  0  0
   -4.8983   -0.2172   -1.0054 H   0  0  0  0  0  0  0  0  0  0  0  0
    2.9092    3.0565   -0.3779 H   0  0  0  0  0  0  0  0  0  0  0  0
    3.8527    1.6042    0.0166 H   0  0  0  0  0  0  0  0  0  0  0  0
    2.5589    2.1742    1.1247 H   0  0  0  0  0  0  0  0  0  0  0  0
  1  2  1  0  0  0  0
  2  3  1  0  0  0  0
  2  4  1  0  0  0  0
  4  5  2  0  0  0  0
  5  6  1  0  0  0  0
  6  7  1  0  0  0  0
  7  8  2  0  0  0  0
  7  9  4  0  0  0  0
  9 10  1  0  0  0  0
  2 11  1  0  0  0  0
 11 12  1  0  0  0  0
  1 13  1  0  0  0  0
  1 14  1  0  0  0  0
  1 15  1  0  0  0  0
  3 16  1  0  0  0  0
  3 17  1  0  0  0  0
  3 18  1  0  0  0  0
  4 19  1  0  0  0  0
  9 20  1  0  0  0  0
 10 21  1  0  0  0  0
 10 22  1  0  0  0  0
 10 23  1  0  0  0  0
 12 24  1  0  0  0  0
 12 25  1  0  0  0  0
 12 26  1  0  0  0  0
M  END
