 xtb: 6.7.1 (edcfbbe)
          04112516423D

 26 25  0     0  0            999 V2000
    3.1494   -1.4511   -0.7549 C   0  0  0  0  0  0  0  0  0  0  0  0
    1.9340   -0.7200   -0.1930 C   0  0  0  0  0  0  0  0  0  0  0  0
    2.0045   -0.6493    1.3258 C   0  0  0  0  0  0  0  0  0  0  0  0
    0.6765   -1.3585   -0.6914 C   0  0  0  0  0  0  0  0  0  0  0  0
   -0.5391   -1.1010   -0.4607 N   0  0  0  0  0  0  0  0  0  0  0  0
   -0.8009   -0.0306    0.4267 O   0  0  0  0  0  0  0  0  0  0  0  0
   -2.1244    0.2692    0.6132 C   0  0  0  0  0  0  0  0  0  0  0  0
   -2.3659    1.2070    1.3533 O   0  0  0  0  0  0  0  0  0  0  0  0
   -2.9974   -0.4923   -0.0291 N   0  0  0  0  0  0  0  0  0  0  0  0
   -4.4268   -0.3015    0.0570 C   0  0  0  0  0  0  0  0  0  0  0  0
    1.9641    0.9855   -0.9890 S   0  0  0  0  0  0  0  0  0  0  0  0
    1.4747    2.1660    0.2973 C   0  0  0  0  0  0  0  0  0  0  0  0
    3.1311   -1.4341   -1.8417 H   0  0  0  0  0  0  0  0  0  0  0  0
    4.0604   -0.9617   -0.4221 H   0  0  0  0  0  0  0  0  0  0  0  0
    3.1558   -2.4828   -0.4113 H   0  0  0  0  0  0  0  0  0  0  0  0
    2.9140   -0.1386    1.6321 H   0  0  0  0  0  0  0  0  0  0  0  0
    2.0276   -1.6632    1.7214 H   0  0  0  0  0  0  0  0  0  0  0  0
    1.1451   -0.1365    1.7494 H   0  0  0  0  0  0  0  0  0  0  0  0
    0.7874   -2.1673   -1.4026 H   0  0  0  0  0  0  0  0  0  0  0  0
   -2.6283   -1.2298   -0.6168 H   0  0  0  0  0  0  0  0  0  0  0  0
   -4.8334   -0.0793   -0.9285 H   0  0  0  0  0  0  0  0  0  0  0  0
   -4.6163    0.5353    0.7262 H   0  0  0  0  0  0  0  0  0  0  0  0
   -4.8983   -1.1995    0.4531 H   0  0  0  0  0  0  0  0  0  0  0  0
    0.4780    1.9421    0.6646 H   0  0  0  0  0  0  0  0  0  0  0  0
    1.4762    3.1301   -0.2021 H   0  0  0  0  0  0  0  0  0  0  0  0
    2.2029    2.1616    1.1011 H   0  0  0  0  0  0  0  0  0  0  0  0
  1  2  1  0  0  0  0
  2  3  1  0  0  0  0
  2  4  1  0  0  0  0
  4  5  2  0  0  0  0
  5  6  1  0  0  0  0
  6  7  1  0  0  0  0
  7  8  2  0  0  0  0
  7  9  4  0  0  0  0
  9 10  1  0  0  0  0
  2 11  1  0  0  0  0
 11 12  1  0  0  0  0
  1 13  1  0  0  0  0
  1 14  1  0  0  0  0
  1 15  1  0  0  0  0
  3 16  1  0  0  0  0
  3 17  1  0  0  0  0
  3 18  1  0  0  0  0
  4 19  1  0  0  0  0
  9 20  1  0  0  0  0
 10 21  1  0  0  0  0
 10 22  1  0  0  0  0
 10 23  1  0  0  0  0
 12 24  1  0  0  0  0
 12 25  1  0  0  0  0
 12 26  1  0  0  0  0
M  END
