 xtb: 6.7.1 (edcfbbe)
          04112517493D

 26 26  0     0  0            999 V2000
   -4.5805   -0.7804   -0.2044 C   0  0  0  0  0  0  0  0  0  0  0  0
   -3.1546   -0.3114   -0.4650 C   0  0  0  0  0  0  0  0  0  0  0  0
   -2.3457   -0.2067    0.8340 C   0  0  0  0  0  0  0  0  0  0  0  0
   -0.9460    0.2603    0.5543 C   0  0  0  0  0  0  0  0  0  0  0  0
   -0.6356    1.6100    0.5367 C   0  0  0  0  0  0  0  0  0  0  0  0
    0.6465    2.0381    0.2358 C   0  0  0  0  0  0  0  0  0  0  0  0
    1.6391    1.1193   -0.0551 C   0  0  0  0  0  0  0  0  0  0  0  0
    1.3350   -0.2516   -0.0423 C   0  0  0  0  0  0  0  0  0  0  0  0
    0.0507   -0.6657    0.2593 C   0  0  0  0  0  0  0  0  0  0  0  0
    2.3935   -1.0813   -0.3431 O   0  0  0  0  0  0  0  0  0  0  0  0
    2.1715   -2.4761   -0.3473 C   0  0  0  0  0  0  0  0  0  0  0  0
    2.8990    1.5522   -0.3483 O   0  0  0  0  0  0  0  0  0  0  0  0
   -5.0953   -0.0852    0.4547 H   0  0  0  0  0  0  0  0  0  0  0  0
   -5.1360   -0.8459   -1.1367 H   0  0  0  0  0  0  0  0  0  0  0  0
   -4.5798   -1.7612    0.2657 H   0  0  0  0  0  0  0  0  0  0  0  0
   -3.1707    0.6656   -0.9524 H   0  0  0  0  0  0  0  0  0  0  0  0
   -2.6556   -1.0087   -1.1413 H   0  0  0  0  0  0  0  0  0  0  0  0
   -2.3233   -1.1843    1.3191 H   0  0  0  0  0  0  0  0  0  0  0  0
   -2.8415    0.4965    1.5052 H   0  0  0  0  0  0  0  0  0  0  0  0
   -1.3980    2.3396    0.7624 H   0  0  0  0  0  0  0  0  0  0  0  0
    0.8990    3.0863    0.2225 H   0  0  0  0  0  0  0  0  0  0  0  0
   -0.1942   -1.7160    0.2726 H   0  0  0  0  0  0  0  0  0  0  0  0
    1.8563   -2.8275    0.6385 H   0  0  0  0  0  0  0  0  0  0  0  0
    3.1314   -2.9183   -0.6046 H   0  0  0  0  0  0  0  0  0  0  0  0
    1.4254   -2.7538   -1.0963 H   0  0  0  0  0  0  0  0  0  0  0  0
    3.4605    0.7802   -0.5238 H   0  0  0  0  0  0  0  0  0  0  0  0
  1  2  1  0  0  0  0
  2  3  1  0  0  0  0
  3  4  1  0  0  0  0
  4  5  4  0  0  0  0
  5  6  4  0  0  0  0
  6  7  4  0  0  0  0
  7  8  4  0  0  0  0
  4  9  4  0  0  0  0
  8  9  4  0  0  0  0
  8 10  1  0  0  0  0
 10 11  1  0  0  0  0
  7 12  1  0  0  0  0
  1 13  1  0  0  0  0
  1 14  1  0  0  0  0
  1 15  1  0  0  0  0
  2 16  1  0  0  0  0
  2 17  1  0  0  0  0
  3 18  1  0  0  0  0
  3 19  1  0  0  0  0
  5 20  1  0  0  0  0
  6 21  1  0  0  0  0
  9 22  1  0  0  0  0
 11 23  1  0  0  0  0
 11 24  1  0  0  0  0
 11 25  1  0  0  0  0
 12 26  1  0  0  0  0
M  END
