 xtb: 6.7.1 (edcfbbe)
          04112516153D

 26 25  0     0  0            999 V2000
    1.4297    0.5566   -1.8236 C   0  0  0  0  0  0  0  0  0  0  0  0
    1.6056    0.1201   -0.3663 C   0  0  0  0  0  0  0  0  0  0  0  0
    1.6053   -1.4018   -0.2533 C   0  0  0  0  0  0  0  0  0  0  0  0
    0.5372    0.7598    0.4667 C   0  0  0  0  0  0  0  0  0  0  0  0
   -0.7082    0.5586    0.4775 N   0  0  0  0  0  0  0  0  0  0  0  0
   -1.2059   -0.4254   -0.4020 O   0  0  0  0  0  0  0  0  0  0  0  0
   -2.5659   -0.6111   -0.3613 C   0  0  0  0  0  0  0  0  0  0  0  0
   -3.0202   -1.4589   -1.1076 O   0  0  0  0  0  0  0  0  0  0  0  0
   -3.2393    0.1527    0.4868 N   0  0  0  0  0  0  0  0  0  0  0  0
   -4.6739    0.0818    0.6436 C   0  0  0  0  0  0  0  0  0  0  0  0
    3.2448    0.8059    0.1707 S   0  0  0  0  0  0  0  0  0  0  0  0
    3.4290    0.0977    1.8355 C   0  0  0  0  0  0  0  0  0  0  0  0
    2.2207    0.1246   -2.4308 H   0  0  0  0  0  0  0  0  0  0  0  0
    0.4672    0.2137   -2.1977 H   0  0  0  0  0  0  0  0  0  0  0  0
    1.4807    1.6404   -1.9038 H   0  0  0  0  0  0  0  0  0  0  0  0
    2.4773   -1.8030   -0.7644 H   0  0  0  0  0  0  0  0  0  0  0  0
    0.7090   -1.8052   -0.7199 H   0  0  0  0  0  0  0  0  0  0  0  0
    1.6226   -1.7201    0.7865 H   0  0  0  0  0  0  0  0  0  0  0  0
    0.8346    1.5456    1.1499 H   0  0  0  0  0  0  0  0  0  0  0  0
   -2.7129    0.8188    1.0384 H   0  0  0  0  0  0  0  0  0  0  0  0
   -4.9236   -0.1799    1.6707 H   0  0  0  0  0  0  0  0  0  0  0  0
   -5.0499   -0.6859   -0.0297 H   0  0  0  0  0  0  0  0  0  0  0  0
   -5.1245    1.0404    0.3908 H   0  0  0  0  0  0  0  0  0  0  0  0
    2.5055    0.2231    2.3914 H   0  0  0  0  0  0  0  0  0  0  0  0
    4.2282    0.6595    2.3069 H   0  0  0  0  0  0  0  0  0  0  0  0
    3.7051   -0.9493    1.7626 H   0  0  0  0  0  0  0  0  0  0  0  0
  1  2  1  0  0  0  0
  2  3  1  0  0  0  0
  2  4  1  0  0  0  0
  4  5  2  0  0  0  0
  5  6  1  0  0  0  0
  6  7  1  0  0  0  0
  7  8  2  0  0  0  0
  7  9  4  0  0  0  0
  9 10  1  0  0  0  0
  2 11  1  0  0  0  0
 11 12  1  0  0  0  0
  1 13  1  0  0  0  0
  1 14  1  0  0  0  0
  1 15  1  0  0  0  0
  3 16  1  0  0  0  0
  3 17  1  0  0  0  0
  3 18  1  0  0  0  0
  4 19  1  0  0  0  0
  9 20  1  0  0  0  0
 10 21  1  0  0  0  0
 10 22  1  0  0  0  0
 10 23  1  0  0  0  0
 12 24  1  0  0  0  0
 12 25  1  0  0  0  0
 12 26  1  0  0  0  0
M  END
