 xtb: 6.7.1 (edcfbbe)
          04112516333D

 17 16  0     0  0            999 V2000
   -3.5928   -0.2025   -0.6695 C   0  0  0  0  0  0  0  0  0  0  0  0
   -2.4671   -0.7981    0.1691 C   0  0  0  0  0  0  0  0  0  0  0  0
   -1.6552    0.2521    0.9298 C   0  0  0  0  0  0  0  0  0  0  0  0
   -0.9408    1.2797    0.0508 C   0  0  0  0  0  0  0  0  0  0  0  0
    0.0787    0.6866   -0.9009 C   0  0  0  0  0  0  0  0  0  0  0  0
    1.5503   -0.2193    0.0583 Br  0  0  0  0  0  0  0  0  0  0  0  0
   -4.2267    0.4330   -0.0555 H   0  0  0  0  0  0  0  0  0  0  0  0
   -4.2066   -0.9961   -1.0883 H   0  0  0  0  0  0  0  0  0  0  0  0
   -3.2029    0.3901   -1.4933 H   0  0  0  0  0  0  0  0  0  0  0  0
   -2.8982   -1.4807    0.9046 H   0  0  0  0  0  0  0  0  0  0  0  0
   -1.8100   -1.3933   -0.4682 H   0  0  0  0  0  0  0  0  0  0  0  0
   -2.3237    0.7920    1.6032 H   0  0  0  0  0  0  0  0  0  0  0  0
   -0.9128   -0.2606    1.5467 H   0  0  0  0  0  0  0  0  0  0  0  0
   -1.6703    1.8196   -0.5560 H   0  0  0  0  0  0  0  0  0  0  0  0
   -0.4451    2.0066    0.6985 H   0  0  0  0  0  0  0  0  0  0  0  0
    0.5622    1.4566   -1.4991 H   0  0  0  0  0  0  0  0  0  0  0  0
   -0.3512   -0.0721   -1.5506 H   0  0  0  0  0  0  0  0  0  0  0  0
  1  2  1  0  0  0  0
  2  3  1  0  0  0  0
  3  4  1  0  0  0  0
  4  5  1  0  0  0  0
  5  6  1  0  0  0  0
  1  7  1  0  0  0  0
  1  8  1  0  0  0  0
  1  9  1  0  0  0  0
  2 10  1  0  0  0  0
  2 11  1  0  0  0  0
  3 12  1  0  0  0  0
  3 13  1  0  0  0  0
  4 14  1  0  0  0  0
  4 15  1  0  0  0  0
  5 16  1  0  0  0  0
  5 17  1  0  0  0  0
M  END
